* CL05A225KP5NSN Multilayer Ceramic Capacitor Interactive Precise Model For PSPICE
*-----------------------------------------------------------------------------------------------
* Model Generated by Samsung Electro-Mechanics
* Samsung Spice Model Version 5.0
* Products : Multilayer Ceramic Capacitor(General)
*-----------------------------------------------------------------------------------------------
* Characteristics :
*
*     Nominal Capacitance = 2.2uF
*     Capacitance Tolerance = +/-10%
*     TCC = X5R(-55 ~ +85 degC.)
*     Rated Voltage = 10.0Vdc
*     Size = 0402(unit:inch), 1005(unit:mm)
*     Length = 1.00+/-0.07mm
*     Width = 0.50+/-0.07mm
*     Thickness = 0.50+/-0.07mm
*     Reliability level = Standard
*     Lineup = Normal
*     Feature = Normal
* Applicable condition :
*     Frequency : 100Hz ~ 6GHz
*     Measurement Temperature : X5R(-55 ~ +85 degC.)
*     DC bias Value = 0V ~ 10V
*     Small Signal as Network Analyzer
*-----------------------------------------------------------------------------------------------
* External Node Assignments :
*
*  1  o---||---o  2
*
*-----------------------------------------------------------------------------------------------
**$ENCRYPTED_LIB
**$INTERFACE
.SUBCKT CL05A225KP5NSN_Precise_Interactive Port1 Port2
$CDNENCSTART_ADV2
17f62b1fb318c25603aeb85644ae98a5d179ef807807791f6459efacb9d7ffc35a73a37243d4cce46a460e928d7c8f9c39ee99122a9d3f96f7d47fafa32ba578
f42281a1e01984ca61ee9568245776d80530244a17a14619c2ea4aed6910fcba59cee04865e9bc14f0b6ed9d7801ca6ce9451b4e7ea0eb184bc9f6f3ab9a725b
610d354b598bfeb8107a3308bf6d07e4c1c46c61861524ffd70020bbf884cef0f87b81fd0d87ae9a9e5bc788814fd0915f3b89fc31ecffe93d4ccec2f2346d1f
39b2a4849402be3d0c0d09347e3a2a78ae7477b246e7c4991aa768064e584999423d5dc011f8675f7008fa646292358e9edda449b7f4faa5235ee40941340374
471cb442aceab9f8ec356d60f88d7176c415b2154f46e76940f92dd3a9a02b9777a48febc9e9153d1af8777d1e1a593530d26d4291a961453acf0b574b0100ad
abc3e02edc8ae44399849f402fb089aa1e43ee32c7f983c4c04684bc54727614e1d166a5b0afb1dc19ad9fe7cfff61a2fcfca46fc6c328da3be41f3d0b59140c
9b2dfbb4cee831c1eb5a6bdc67a92e7cf8c568f06c766774effc6f4e96e8f846f739691d0fed011a66d42be99d3fd196524994c0a08fa282d6732e2bd0c03ac7
3ed1a6b36e7006b9493feb5234455ba3af303bb559a2cb10a3499f817d407ba1dc783b3314fe9b8edfb93114e1c43f7946db4660775e17bb3a95a3c368724d47
86bd874f58d635360bc9fde8100391f3abc12a91777cc2999a8f235598b615eb59cee04865e9bc14f0b6ed9d7801ca6c5933a947a0c916ff10ce555fd28c657c
c9122d1673d7a548bf2fb922bb4e7422621b9059ebd9a6ee076940dae409fc681d94f6621ade70ead7eadca06a49a18a5d099a1855c00a9ed59d7b78387ba9bf
bb7423e784bb83cb35d344396b98e1b5bedd8677b4a5aacead7c753c1f4b09ef6b43632e87cacbd8b0c0805084574b7a04d1af8da8e9c73c580500bb1cbe6992
c6bef1297da4ed1aeece94f4488b6dac7a87fee7e848ef67db3ec828df9e03c9fe1689d607c93936e5101a47cd51a403ea8a030c885557de469293470399ed45
49610c48c9e887347f6f83cd055e6666d179ef14d4c8d40ceae5773f324944393acc928a7f8a2e08f0a7480f867b9234a6dfb3a5c2c32e83b3c6e7820c2fddad
b640e39271910b36caaf733e6d8de234584e151cb26abfa326103b8b02e2d5fd7ad1225d584a9fdc43ff9fa3549578db628ee828b1e551e4765cfcc466a620e7
ea1e062852abba78c4252e65e326f13777f1392e11b2aed6c74bea180e6b9229ecec6c4cc9a4d31da248ce7b12cc673746db4660775e17bb3a95a3c368724d47
200ed022c151f872c3927a0ddc33fa39517e580e79548316828559a6e27d144a1fb93cf922134a7887f1c0e74a9604d60a7f59b12fd0d35b765ad4967c516784
863e30b5d077e94bcdbf5ca735dee6caf6f5406fc74b7992464e6090f30ed7dc59cee04865e9bc14f0b6ed9d7801ca6c32603c4ad0530325f94cff1d0bbe4871
14558bbf8f45d7af33d26aa65149d44cc1c46c61861524ffd70020bbf884cef0f87b81fd0d87ae9a9e5bc788814fd0915f3b89fc31ecffe93d4ccec2f2346d1f
88ed8502038744a087931fd92042183e98a8b7fa6d104dbe1417b9c8ed6f9fa9abbb84013246189b9fff8e3cb69c35ddde0e85fc4bafeffc34691d87cd15482a
cda2165233d3d765c3aad72986fc4f2f2761aff0391a8a7256ce862fcf893b27a6d822ae590c0d9c1ca4dd71b8719618a2bbc6f104672c432441fdd5a0e7aa78
4c7bf2e216d3aa25d2864e19d297097e467397c3e145875de0f974e5c10fe63a9073b9230a894778aee60dd42c251bb2c098c9cbb148defbf93385ed5b9bb986
d93a4aa131b5b9c86e8925e2650abc80a60d522e5fa7f446a93fb8bd33ed0e81d704c0ede45322ad922c7ca0714611a0c509cfbd1acdbd8401af862d74692a94
aaed177946284fe1b3b3cca054add845e9176f956d61fb11c8542e6ce9e4556f3225d755d9a7e4c53e5b258daf8d16c866f3f758e77bb6c71107dbd028dfa556
32c35bf5014e8d856dbbbf527c0d38d7683ee210daab68482169e9016a6a70588ec5b2fb8aed02d11b40159277677ffc81852c8f36097684d3500ef85e9fa17e
fbddb0e0d159c0da3761da13cbf333b0f8c568f06c766774effc6f4e96e8f846f739691d0fed011a66d42be99d3fd196524994c0a08fa282d6732e2bd0c03ac7
62c00bce016a7e2e5af09082a6c17e9d621b9059ebd9a6ee076940dae409fc681d94f6621ade70ead7eadca06a49a18a5d099a1855c00a9ed59d7b78387ba9bf
9436275f000b5b8c9bbc9a7e356f32d1243978b95cb978c5c42600b5405d6ebd213d7336b41e017bbbe0c04538b0ef670b3af24736ca4f16887f837106705213
f4173bd2bb09df0fab0fa55c89ce4bd3df19da036203dae54184958f115d33c041947e5851d3d51634d00f89a36f79c60246efe4fe9266a669907c770e7269ca
973ba4ccc2530f203eefe4e58b318f98ce47a93d87a566d29fab161ccb126dd0b180e1e08a6e9c753cb06635b38a4c419ecb7666e704474207c5457fd70e4ebc
62c00bce016a7e2e5af09082a6c17e9d621b9059ebd9a6ee076940dae409fc681d94f6621ade70ead7eadca06a49a18a5d099a1855c00a9ed59d7b78387ba9bf
3ab1019e089e885e7907b6fea77bf941243978b95cb978c5c42600b5405d6ebd213d7336b41e017bbbe0c04538b0ef670b3af24736ca4f16887f837106705213
6e0d79d96d54093845de8e3a87b861b6a4b0ef7b53c708c5c93a12cecc633c8e419c96b153cfdefdf4506b0dafbd19c04505110f3bf9a2a630b5c2b9446a38b4
86be4f2bf93b143a68b0b296e54e09f14edc3b83455a374832b163c1fc9a2d0f7a87fee7e848ef67db3ec828df9e03c9c007072586b6d8290cae524bf6028ff6
62c00bce016a7e2e5af09082a6c17e9d621b9059ebd9a6ee076940dae409fc681d94f6621ade70ead7eadca06a49a18a5d099a1855c00a9ed59d7b78387ba9bf
01e3786b871ba9e3269e3624fbbecd545d6702fee75aafddd0c655027a50fc013fa2cc088a152d6b253c13f17ce8c73b54c9eb3b8c1756b3789e56592880f860
4666aa858079ab80e559cad1c0372496e729d0f6b9a3d087d410bbfbaf52d6fce5000069a6a54ad89e6f4758bdb39d53db1125eaf6bbadb7cd526b9a73488d2f
4286f0e9e6bff4d4dacd5e300f2ca4f7e44efaa20efc0bd6beb7b68d5fecbab09cd221d7ec50355a9bdbf9a4a2ca5c15fc588b21a2d5fd98aa43368d9e2781cf
113519776a59987af694af628617d9deda5857a6beabb43df84888c13792a0eae5000069a6a54ad89e6f4758bdb39d53db1125eaf6bbadb7cd526b9a73488d2f
5e133fd5cd3e1be244a44d3440309c68532f43fc3382e5a83baf9e8993b70b6c31357786d0fd4863a1e7a12fd2561e0406ed0adc540601ede0e03121246d1bf0
13701b0719770874395bcb80871e89eaa4b0ef7b53c708c5c93a12cecc633c8ef39e6d7d0eb2b7d9749dc5bc10e4278b4505110f3bf9a2a630b5c2b9446a38b4
0ef3e77d06658dbd9c576cf8f4f498f0023d0202795b61d0fe98a61cd7a3468939bf4d3d7d9cfe502987ab4ef58e0906db1125eaf6bbadb7cd526b9a73488d2f
62c00bce016a7e2e5af09082a6c17e9d621b9059ebd9a6ee076940dae409fc681d94f6621ade70ead7eadca06a49a18a5d099a1855c00a9ed59d7b78387ba9bf
110e7437c591fff0a4d989832e25b528b406c997bfe534d41985576daad65cc0e5000069a6a54ad89e6f4758bdb39d53db1125eaf6bbadb7cd526b9a73488d2f
f72801e3c7db43ede577df5f939bd78c5ea02ff802ad45f0c050b6f0b00f297fe5000069a6a54ad89e6f4758bdb39d53db1125eaf6bbadb7cd526b9a73488d2f
ca81feade30ebc93a9f3bcd7fd9bc17b7fd56cc2845a0148e51a993b31e1e566e5000069a6a54ad89e6f4758bdb39d53db1125eaf6bbadb7cd526b9a73488d2f
e8e7597fe5249a7ca05ac6982334acfbea950076c58d58ed8973e2ffce859e5de5000069a6a54ad89e6f4758bdb39d53db1125eaf6bbadb7cd526b9a73488d2f
9e85fe6c3c1e8e4126a1bece19c04aef09052dde095028e9ad215dbfb0b7abbee5000069a6a54ad89e6f4758bdb39d53db1125eaf6bbadb7cd526b9a73488d2f
d8d7c77eda2aa5a97e49500fd792f4c86871de56cc7cb5cfe0521faf237e4aa0e5000069a6a54ad89e6f4758bdb39d53db1125eaf6bbadb7cd526b9a73488d2f
b69f898cb814d59183a1a5e225528244ac2a39311faf08bc08fbed15cc822ae53fa2cc088a152d6b253c13f17ce8c73b54c9eb3b8c1756b3789e56592880f860
f6020abc6c9322b84521c7ea74651afc0467189194ff989670169520d0a8d17ddcd23f38f50b2a8149ea2a735e98de6bb5b16e8a16284860987ca57802874870
837e9fc59d12675c2a39c2e1982c1ed7d664f78dcc5cc6f4b13aca4e36ac71b27a87fee7e848ef67db3ec828df9e03c9c007072586b6d8290cae524bf6028ff6
4770dafe6d85a90cb94c07494d5e99df0db0c5606117f56870a9806056682ebb3af2a7c1d9b44d96712f0339a66ddc79c22c77c9243c38989b7afb98fa6bb1c7
8758468462318bad25b62e1ecd13e42d9ce5051888dc9e648374ea68f7a444af573802b04e99cca2d78978bb6483ccd06bf9737ab170d70e1a67474d3291ee1f
62c00bce016a7e2e5af09082a6c17e9d621b9059ebd9a6ee076940dae409fc681d94f6621ade70ead7eadca06a49a18a5d099a1855c00a9ed59d7b78387ba9bf
407404319c2205b345fb51e83ae83c513e4292db06c65bd52fe13992abe6f220282caa3d79f0a890c4b4f27b14acbb60dcd406a01e1020110da9909cd0196f16
62ea36afab9063e197e6912ba0f49951621b9059ebd9a6ee076940dae409fc681d94f6621ade70ead7eadca06a49a18a5d099a1855c00a9ed59d7b78387ba9bf
043d4c3f4faccda7036d47233b994cdbb2c7652647a3d229ee41ee388f42a6b599ed8c0a5c10102b2982f823ee6ea5d1adbcd6fff9f75582d6d19a4360d37326
f8298e9d77319ebd8e8c1618619ef485c415b2154f46e76940f92dd3a9a02b9777a48febc9e9153d1af8777d1e1a593530d26d4291a961453acf0b574b0100ad
27a67b8d60e5917b428700ca0cc76381ceb0b4393a12fc0e86eeed8daaa1f94a79a644970d0cc7f8d660dab428db49d4be10084d7724bf58d20163b3fd8c3c03
454467444754b114154570014e6a176209316ba38c8ba931109bb06823a711a71b18d07d48dbc5fdb50ba2cb63eb0dcb37b3ec9f898e896eae647353b083df76
229f4d9552eba215c4f43274aae426fe09fdd01df921fc2ac0e6814e550f2524816086da657ec49181b23ebdd790024e66f3f758e77bb6c71107dbd028dfa556
4c934ab50ccde9021ff13ba77e2111f4caddd289b243d06c3d7071a503c1d8ee282caa3d79f0a890c4b4f27b14acbb60dadd7c9aaef64ece547a25fb57a7cdd9
e61a28f7f88b8cf0af4dfaa741f4d8f3621b9059ebd9a6ee076940dae409fc681d94f6621ade70ead7eadca06a49a18a5d099a1855c00a9ed59d7b78387ba9bf
53308c36ac8696013c33def305e6926fd3dfdbaa6fde1e11539589e76e5a72d57f66efb30bf205267096c545e74c0f327d8643e01fcb6f30e28488a8e0bba493
cc43714b5c0932d12e872012268ea119573802b04e99cca2d78978bb6483ccd097f9c2f8f09bfb66e47296a8ba846e3e992abcdfd6945e21a232a808aa1eb1da
f906286b8bd006719f13307be9d12e4f15da502beddcaf5222a3aef6ad39fddf1619d5631758e77ab015c3a232c6cb017de7b17215e849c14c4f72a5f360b83c
69308cb2552e706d62b1edf4510a0df6e4a89b27771d67a2d5cbfa4fc3f0225996a7cac79d4d28cdb8abf645f6bb4d0f04afdaff8b749263927585aeb3107cdd
8de3bcfebde56e7b24425d57dd3b13952c996543705bd5531643231b8e1a1313433e6f7b4214a8daaa47bc91e22bbad666f3f758e77bb6c71107dbd028dfa556
c164efad3e353e9883257ed39eba25e218bb65d3bcb87ef30fb25fe4150b99b4e5000069a6a54ad89e6f4758bdb39d53db1125eaf6bbadb7cd526b9a73488d2f
613f82500756374813514ebb359b9b2356467ed112045e3965baf5e8b0f9ee0a6f915793a8d8397d9fb9a3c183b30361db1125eaf6bbadb7cd526b9a73488d2f
5c4c2aee47bb85ffa914d60ea4797a4179178aed800fef4053febbc2030d1ae8a12eeeb3b33e1678e075abb494139f920b3af24736ca4f16887f837106705213
18ddb3b001b61a493154647425b86d39280d98d1f7e3e703ad0b63b15ecd1a46213d7336b41e017bbbe0c04538b0ef670b3af24736ca4f16887f837106705213
7cde44140ea9a8ad908b212fe8824ae8c5a6daf7cb9989c120da48bec2d1c75a9a77c43676894f78dc33fccc5c29e352ff6402cc2b1e36f03eb7007f168d3438
8758468462318bad25b62e1ecd13e42dda7006b720b2c480774c579a19c960d77a87fee7e848ef67db3ec828df9e03c9c007072586b6d8290cae524bf6028ff6
62c00bce016a7e2e5af09082a6c17e9d621b9059ebd9a6ee076940dae409fc681d94f6621ade70ead7eadca06a49a18a5d099a1855c00a9ed59d7b78387ba9bf
c264875952479367c09dc954a2db32c02e676fce9b46cee63983f476882fca2aada76a0aa7b9c0aa77614003c04d5e6506ed0adc540601ede0e03121246d1bf0
86b0776e3159529a8d5ca6b2713c65f0b6bfccb0d9622cfbfa1a47cf46a9e2c4ada76a0aa7b9c0aa77614003c04d5e6506ed0adc540601ede0e03121246d1bf0
3987943fbe77160511cec572ea69cb8704d9577a8516e12c4f99c3ce63745c55ada76a0aa7b9c0aa77614003c04d5e6506ed0adc540601ede0e03121246d1bf0
1cd148cae0cc6c263a06a82b5a616d839a6e17f968ee6e0ccd721c0d98f3f3fccdd00ad148f83b2c8045853fab65d6030aa705128289c996828a94eadcd9d203
3f1e6fba4a0d369f2d20db10ace6d978d7b9a93e87ceb4a54843f92594a340f6282caa3d79f0a890c4b4f27b14acbb60e9f96d945ce7c7ad669bf23413d03b3d
86fb40902fec18370d5c77d00f34ee8d36f6d092228f18b3d031720ac33f2a1d0e1429c99a9ef10d17b3396c70264f3d187d58937942a09950d39b12eeb2e1a0
35bc5f47ef57378ad2295ea8051fb9ed6a0c7bb22ae578a970e831e42dfada37ac5c5ae8c7ebeb87233bb78c53e14f5ebb0a1919dba51fb0247e03162ff38775
675ce4e85b06313e1baaa89651b6258d7a87fee7e848ef67db3ec828df9e03c9fe1689d607c93936e5101a47cd51a403ea8a030c885557de469293470399ed45
f3ca7ef18c357801b12162ccaae95fda079163d9f9fb2adf9366dd5ccc8fecaa22ddd86e1cba9cec7bcee212307229705c453e9d6a354da83cda6560b021881c
2d41fae660f47f72ccd3d224c3490fad09316ba38c8ba931109bb06823a711a71b18d07d48dbc5fdb50ba2cb63eb0dcb37b3ec9f898e896eae647353b083df76
c597ed99cb4d9f3929c47575df03e0090fd4a29b611f11f50607cf3bce3a88b991aed5b916c3ec05cd8382915933bbb21654c03d3326246657d7c26df540c5d1
70f0059dfe7f74c8d54654985f5756f85e09fc7c3a8027e4b0498d6d6d734a567a87fee7e848ef67db3ec828df9e03c9c007072586b6d8290cae524bf6028ff6
510fb077c36880288d370ffdc1e246dff54e46d4ae6d36d760def9b34b9aab41866ed50c60800f5c583060759074495aefba1fa454f47781ffa7d92ee3898729
717d3bdca20de83e401e082357e179566838452b7a6febc215ced5dd95de55d8c5df778b772682e93ba19af45acffbd64d5e01f0bcf48ac3dea17827e1a4e12b
62c00bce016a7e2e5af09082a6c17e9d621b9059ebd9a6ee076940dae409fc681d94f6621ade70ead7eadca06a49a18a5d099a1855c00a9ed59d7b78387ba9bf
a765dc6b57c430c12d2ab8204b3fc7395e09fc7c3a8027e4b0498d6d6d734a567a87fee7e848ef67db3ec828df9e03c9c007072586b6d8290cae524bf6028ff6
954560fe98b2ccf9d9f121ec50b92775792d95225d2537c9fa82c1cbc0b4609268d7a228a48d08accd0b9f1637abd2e3665d33566e49924ed6c86ee6ec6bd41b
8758468462318bad25b62e1ecd13e42d7d8c7ab5856cd95a24d8077fdaf7e5f7573802b04e99cca2d78978bb6483ccd06bf9737ab170d70e1a67474d3291ee1f
62c00bce016a7e2e5af09082a6c17e9d621b9059ebd9a6ee076940dae409fc681d94f6621ade70ead7eadca06a49a18a5d099a1855c00a9ed59d7b78387ba9bf
c61b593ec47f1631be75b0a57268eb9de10108eae84fdf657019190f87c23b32282caa3d79f0a890c4b4f27b14acbb60ba579c2c0c20ec5157ef6042efee5edf
c9122d1673d7a548bf2fb922bb4e7422621b9059ebd9a6ee076940dae409fc681d94f6621ade70ead7eadca06a49a18a5d099a1855c00a9ed59d7b78387ba9bf
111e6650909df1331490059196bee4eae287a3c0128434c298d3a6c6baac81404322b9599b1ee304c5117343a57a2db53d25837f9c7ac6b84ce938138d84beee
1ee39197420697e375459f2be2f16e1ac415b2154f46e76940f92dd3a9a02b9777a48febc9e9153d1af8777d1e1a593530d26d4291a961453acf0b574b0100ad
dbf3ee65a2759e0e492885bd921f5032814016530cdb6cf9c82c7eb09069a421301945cdfd41330f1a0a1ccd80eb21f642c9aac8d3f364992ee4843ebca4fa85
8d6e136fa764811b3acc9b418a497ab8a60d522e5fa7f446a93fb8bd33ed0e81d704c0ede45322ad922c7ca0714611a0c509cfbd1acdbd8401af862d74692a94
92e56c45336597eebe297cc5764b6290995a775975f9e51b1d1bc712d6978149336b79a2dc13a86f8d9b7a9ffeb5712b09bd4e2b5f9122c3da10051b6d96bc2f
590df3561c4c93027da52a32dec6120d8e2ff75e56e4185ec8f4de51fd7e6264e5000069a6a54ad89e6f4758bdb39d53db1125eaf6bbadb7cd526b9a73488d2f
5380889b2fa2f0c2bfd3e1731ccfd8edeff99fb65ecad0ceb1b6e94695b6fc2fa12eeeb3b33e1678e075abb494139f920b3af24736ca4f16887f837106705213
31f2c8bf245b60b56c0248df4c62b1d05d828212cd144cde3d356158b933a2a0ada76a0aa7b9c0aa77614003c04d5e6506ed0adc540601ede0e03121246d1bf0
712c2d817fb61f68bb87e8525c1cff64d7ffaab9e63f74511dc4b247ed5329bfada76a0aa7b9c0aa77614003c04d5e6506ed0adc540601ede0e03121246d1bf0
767a81a4eb7e96c210920a5559f7064adce8640398aec5d2fbee4a5af6cd8b47ada76a0aa7b9c0aa77614003c04d5e6506ed0adc540601ede0e03121246d1bf0
503431dba712c0dadb4d5ff1e64573e0939c351943798871de6e3bd2ad0dfa12ada76a0aa7b9c0aa77614003c04d5e6506ed0adc540601ede0e03121246d1bf0
75f5216d06ef3386128836a2dbad79790467189194ff989670169520d0a8d17d6ce7c922259e84d897dd9997d782c03aa6801d06989666f6b2a54fbc9af7f712
66088ccd334b5c2b08f610b11af1f101bbea993b6cbf005ed6164e6286e14f5e7a87fee7e848ef67db3ec828df9e03c9c007072586b6d8290cae524bf6028ff6
091b90440748242a27790dc5275923c1a0121d85696ce53100b9b4c51c71ebbe3af2a7c1d9b44d96712f0339a66ddc791a4629e1dd7f0256b604daf9ca9424fb
8758468462318bad25b62e1ecd13e42d14c28237f5eceec8eb7dd319877afe9e573802b04e99cca2d78978bb6483ccd06bf9737ab170d70e1a67474d3291ee1f
62c00bce016a7e2e5af09082a6c17e9d621b9059ebd9a6ee076940dae409fc681d94f6621ade70ead7eadca06a49a18a5d099a1855c00a9ed59d7b78387ba9bf
1c635d6fbc47008f3e616e608e9a60053e4292db06c65bd52fe13992abe6f220282caa3d79f0a890c4b4f27b14acbb6000a4f3188d88f09318b82e5eb524999b
c9122d1673d7a548bf2fb922bb4e7422621b9059ebd9a6ee076940dae409fc681d94f6621ade70ead7eadca06a49a18a5d099a1855c00a9ed59d7b78387ba9bf
329893f2f9dad94cbf8c5bf462a78c6109dbc333507b46b27ac856f2705cf4178ebe92eb4184870cf8a08e89b1bad21f8669ac97bb563103ee24ccbda41c44e6
4be89adb9885ca818ca0500ad147a3d180ae67ffc2a71505ecd204d88addd384fbde0d867c5950088a0442df747387a68d55ca17546462cf055996de49967da3
329893f2f9dad94cbf8c5bf462a78c6109dbc333507b46b27ac856f2705cf4178ebe92eb4184870cf8a08e89b1bad21f8669ac97bb563103ee24ccbda41c44e6
86fb40902fec18370d5c77d00f34ee8d36f6d092228f18b3d031720ac33f2a1d0e1429c99a9ef10d17b3396c70264f3d187d58937942a09950d39b12eeb2e1a0
329893f2f9dad94cbf8c5bf462a78c6109dbc333507b46b27ac856f2705cf417816c6bb0af64e79080aca4f895460a77289f9251f4bbf33beeba73e9fd4609cc
0ed63cdd3ad7d1548fb3d34374e9454fcaddd289b243d06c3d7071a503c1d8ee282caa3d79f0a890c4b4f27b14acbb605c6e36cfaa1d01524f64bf1570e43f28
e61a28f7f88b8cf0af4dfaa741f4d8f3621b9059ebd9a6ee076940dae409fc681d94f6621ade70ead7eadca06a49a18a5d099a1855c00a9ed59d7b78387ba9bf
329893f2f9dad94cbf8c5bf462a78c6109dbc333507b46b27ac856f2705cf4178ebe92eb4184870cf8a08e89b1bad21f8669ac97bb563103ee24ccbda41c44e6
4be89adb9885ca818ca0500ad147a3d180ae67ffc2a71505ecd204d88addd384fbde0d867c5950088a0442df747387a68d55ca17546462cf055996de49967da3
329893f2f9dad94cbf8c5bf462a78c6109dbc333507b46b27ac856f2705cf4178ebe92eb4184870cf8a08e89b1bad21f8669ac97bb563103ee24ccbda41c44e6
86fb40902fec18370d5c77d00f34ee8d36f6d092228f18b3d031720ac33f2a1d0e1429c99a9ef10d17b3396c70264f3d187d58937942a09950d39b12eeb2e1a0
329893f2f9dad94cbf8c5bf462a78c6109dbc333507b46b27ac856f2705cf417816c6bb0af64e79080aca4f895460a77289f9251f4bbf33beeba73e9fd4609cc
2ca728937d85c52404c68a4d270e723a95b4b4db0d201ed503faec4524cc08cae5000069a6a54ad89e6f4758bdb39d53db1125eaf6bbadb7cd526b9a73488d2f
4ea1da0bb7409dddaa08a03fd4d0fffcdcbaea8592eba80f15539e202b858ddc6f915793a8d8397d9fb9a3c183b30361db1125eaf6bbadb7cd526b9a73488d2f
9e9f83a1c4a155b5a4cda59eb73eb2bf79178aed800fef4053febbc2030d1ae8a12eeeb3b33e1678e075abb494139f920b3af24736ca4f16887f837106705213
3205f5b1a35ad9b71fde283399035809c053349a231d0e3a810325a74d1e4b2d213d7336b41e017bbbe0c04538b0ef670b3af24736ca4f16887f837106705213
a39c7d60a147f7fdbb7768155adf907c815c3db210c992b24bf1fbced4b851f69a77c43676894f78dc33fccc5c29e352dad89db0d69ba90732a360d57aea3f2a
8758468462318bad25b62e1ecd13e42d7b40591f8402cf6b7731665898500f657a87fee7e848ef67db3ec828df9e03c9c007072586b6d8290cae524bf6028ff6
62c00bce016a7e2e5af09082a6c17e9d621b9059ebd9a6ee076940dae409fc681d94f6621ade70ead7eadca06a49a18a5d099a1855c00a9ed59d7b78387ba9bf
4e8d828b69f152a4f890e6c2d32debc62e676fce9b46cee63983f476882fca2aada76a0aa7b9c0aa77614003c04d5e6506ed0adc540601ede0e03121246d1bf0
ceb818c201628c093c2108a663c31dd7b6bfccb0d9622cfbfa1a47cf46a9e2c4ada76a0aa7b9c0aa77614003c04d5e6506ed0adc540601ede0e03121246d1bf0
99f18a4b181a72f22880a7a2306e394b04d9577a8516e12c4f99c3ce63745c55ada76a0aa7b9c0aa77614003c04d5e6506ed0adc540601ede0e03121246d1bf0
7ee4ce050df77826b58afe1d495ecdce0467189194ff989670169520d0a8d17da7d8de97e74012590cab315981be02b85ffb8fe68b1876fe7a3d7400da2fdd6e
40dff9c3aad74b919a2ff152361d1de1f85b332a8cca644fed45c2166605cc087a87fee7e848ef67db3ec828df9e03c9c007072586b6d8290cae524bf6028ff6
46b22bbfefb41c2d39eda7875ebf6f5a78a1a6f4329fe563178844dc9519e05b3af2a7c1d9b44d96712f0339a66ddc79a61e730f6c5d3db6b802e319c6f7d07d
8758468462318bad25b62e1ecd13e42dbe8902e1204308431fffb52609feaaa7573802b04e99cca2d78978bb6483ccd06bf9737ab170d70e1a67474d3291ee1f
62c00bce016a7e2e5af09082a6c17e9d621b9059ebd9a6ee076940dae409fc681d94f6621ade70ead7eadca06a49a18a5d099a1855c00a9ed59d7b78387ba9bf
80da9e7df6737d090acbbeabc72425b03e4292db06c65bd52fe13992abe6f220282caa3d79f0a890c4b4f27b14acbb6000a4f3188d88f09318b82e5eb524999b
c9122d1673d7a548bf2fb922bb4e7422621b9059ebd9a6ee076940dae409fc681d94f6621ade70ead7eadca06a49a18a5d099a1855c00a9ed59d7b78387ba9bf
329893f2f9dad94cbf8c5bf462a78c6109dbc333507b46b27ac856f2705cf4178ebe92eb4184870cf8a08e89b1bad21f8669ac97bb563103ee24ccbda41c44e6
4be89adb9885ca818ca0500ad147a3d180ae67ffc2a71505ecd204d88addd384fbde0d867c5950088a0442df747387a68d55ca17546462cf055996de49967da3
329893f2f9dad94cbf8c5bf462a78c6109dbc333507b46b27ac856f2705cf4178ebe92eb4184870cf8a08e89b1bad21f8669ac97bb563103ee24ccbda41c44e6
86fb40902fec18370d5c77d00f34ee8d36f6d092228f18b3d031720ac33f2a1d0e1429c99a9ef10d17b3396c70264f3d187d58937942a09950d39b12eeb2e1a0
329893f2f9dad94cbf8c5bf462a78c6109dbc333507b46b27ac856f2705cf417816c6bb0af64e79080aca4f895460a77289f9251f4bbf33beeba73e9fd4609cc
f13a46832d066f1c40c169ed70d6fa67caddd289b243d06c3d7071a503c1d8ee282caa3d79f0a890c4b4f27b14acbb605c6e36cfaa1d01524f64bf1570e43f28
e61a28f7f88b8cf0af4dfaa741f4d8f3621b9059ebd9a6ee076940dae409fc681d94f6621ade70ead7eadca06a49a18a5d099a1855c00a9ed59d7b78387ba9bf
329893f2f9dad94cbf8c5bf462a78c6109dbc333507b46b27ac856f2705cf4178ebe92eb4184870cf8a08e89b1bad21f8669ac97bb563103ee24ccbda41c44e6
4be89adb9885ca818ca0500ad147a3d180ae67ffc2a71505ecd204d88addd384fbde0d867c5950088a0442df747387a68d55ca17546462cf055996de49967da3
329893f2f9dad94cbf8c5bf462a78c6109dbc333507b46b27ac856f2705cf4178ebe92eb4184870cf8a08e89b1bad21f8669ac97bb563103ee24ccbda41c44e6
86fb40902fec18370d5c77d00f34ee8d36f6d092228f18b3d031720ac33f2a1d0e1429c99a9ef10d17b3396c70264f3d187d58937942a09950d39b12eeb2e1a0
329893f2f9dad94cbf8c5bf462a78c6109dbc333507b46b27ac856f2705cf417816c6bb0af64e79080aca4f895460a77289f9251f4bbf33beeba73e9fd4609cc
bd6bc30f05f24e282b29ba89dd8d998d53262f60f097dbea7f3336e79b5eb8d0e5000069a6a54ad89e6f4758bdb39d53db1125eaf6bbadb7cd526b9a73488d2f
c9c7014897cc2b41bbae384ba28d9c674b22f0acc5fb91016413bdb3014d22066f915793a8d8397d9fb9a3c183b30361db1125eaf6bbadb7cd526b9a73488d2f
45b01bfc13be4079d8f526e94a88f7db79178aed800fef4053febbc2030d1ae8a12eeeb3b33e1678e075abb494139f920b3af24736ca4f16887f837106705213
597a0256d5788261f230d472ee42aec2fcfb4426355da166c9b5c743c57822c9213d7336b41e017bbbe0c04538b0ef670b3af24736ca4f16887f837106705213
e95ed95ef11f9555ff78aca7ff0de5fb45683fe53110be811f5761c27d67c6689a77c43676894f78dc33fccc5c29e352f299624bff515253451d68d4bd54a3fa
8758468462318bad25b62e1ecd13e42dd60bcca441d6b552eb7e3d53b96ae2b07a87fee7e848ef67db3ec828df9e03c9c007072586b6d8290cae524bf6028ff6
62c00bce016a7e2e5af09082a6c17e9d621b9059ebd9a6ee076940dae409fc681d94f6621ade70ead7eadca06a49a18a5d099a1855c00a9ed59d7b78387ba9bf
4b0f75a29ba6f4063c49d3f5b2f3333a2e676fce9b46cee63983f476882fca2aada76a0aa7b9c0aa77614003c04d5e6506ed0adc540601ede0e03121246d1bf0
a8750e016a115a5ca52468bacedb2990b6bfccb0d9622cfbfa1a47cf46a9e2c4ada76a0aa7b9c0aa77614003c04d5e6506ed0adc540601ede0e03121246d1bf0
c80e1a9e7d8219f74dadec45fcb835d604d9577a8516e12c4f99c3ce63745c55ada76a0aa7b9c0aa77614003c04d5e6506ed0adc540601ede0e03121246d1bf0
e675f0298afa729bab4ecf8305913f314641c3438416463f6c828e966277b5b67c3f3eb4fd1a3395a65f5a663a3d5bf0fc29f9e957589a6d76196e76d0678b2a
dae5a1a3aa3f76f9fd0b795067d0ba941277a2f853ad5e68ba51fdde9af4dab3ad6db09a0fea1c80b3f2edd89b8e8505d03802b353b738f4f04e34d660e7a4c6
15dfd5ce397f3643ada7d342e49fd1372761aff0391a8a7256ce862fcf893b27a6d822ae590c0d9c1ca4dd71b8719618a2bbc6f104672c432441fdd5a0e7aa78
20597d0700330e95702f69e14839a4ed6eb8dc03b36ebce9fda63091fa35d1bc302bdfd4dd8621588897b602f4d5577e75c61aa9cd575eb1edfa14d72eae5c6c
cdd157299ac320e06ce5033fd285df2709316ba38c8ba931109bb06823a711a71b18d07d48dbc5fdb50ba2cb63eb0dcb37b3ec9f898e896eae647353b083df76
64d316759fc2e9619699b454b680f18efbfceb888762f90e5f711a5cd9fe7cc0550e5b58b1c5a0a2823ffdd4334ee49b13c78741642599881a3b7f5fb90a4f00
31151bb1a12f4d7842be6ada0e0d4e3f81f7dbb203dbe399fa7b81f674e5059b642460820b689c7fc64d73d8429864200d44eab7e24b01508c6c83d3766dbe63
05bfc5cd66a9007b2c3c41b8fa14d8d1e3ac5a08c7ac47be924375adc89b377a1c7577148a976d34be94ac488ebcd9b306ed0adc540601ede0e03121246d1bf0
1d1d78d5a57f6c1da8dfcf47699348ea6b92c64866e6f8d4d527e6d1e6478fde2761aff0391a8a7256ce862fcf893b2750b8ee5234000f8894753bf31889609b
8c7ba2cf1a6f7c875610b72ca6519d9562dfaedafce7375ab8fafb406d1319402761aff0391a8a7256ce862fcf893b2750b8ee5234000f8894753bf31889609b
fe45b15eb93c07d8ab5480117059e334858d57fd29573c066e96555ec2e631c909b838486b3af7bab33a0a57107b1684314b55a658b54fc85e1710acea0855ea
7ff1225a2605c237cde6629d74cd8bd0b3a3b2c33edf7176aba60db866c9badd573802b04e99cca2d78978bb6483ccd06bf9737ab170d70e1a67474d3291ee1f
62c00bce016a7e2e5af09082a6c17e9d621b9059ebd9a6ee076940dae409fc681d94f6621ade70ead7eadca06a49a18a5d099a1855c00a9ed59d7b78387ba9bf
31789c5ecf822b1c0f10b940a6cc87bfd4759b057dd001b57b5654af501d2b5edeba861d3132fc5c85bc0342b3c06a364d5e01f0bcf48ac3dea17827e1a4e12b
55c0f0627f1c4edace534a391dcaf19a3f372a2f3b6c3d6dbed1e41c76abcd3c7a87fee7e848ef67db3ec828df9e03c9c007072586b6d8290cae524bf6028ff6
56531ec911476bf6840db939474ef50784f6859da7c2a95ec21e3cdc50b141c77a87fee7e848ef67db3ec828df9e03c9c007072586b6d8290cae524bf6028ff6
a8176cea169f1af74c1ca9550a7f69ae840fdea2216175b058dfa81fe72960a46a79e4bdeed1d4f0c109dc244fae4dadaf73c9ff8f5fbe7a2862449d1ecc2488
069590467fa359f69c8133b17a6059d8584e151cb26abfa326103b8b02e2d5fd7ad1225d584a9fdc43ff9fa3549578db628ee828b1e551e4765cfcc466a620e7
5fbd1ea8c4cde1557de816396cd301dd6e7c5b74a6459764af90235b6295375db98a1dca9aa066c680b57835b423316af9ecbc8475775b09e7705b293189ea26
f3637d2c650c1ce1d81965a2f6dcd0ff7a87fee7e848ef67db3ec828df9e03c9fe1689d607c93936e5101a47cd51a403ea8a030c885557de469293470399ed45
66e7dc10cf19aab7350d223f568c2f33da8a75ee559198dec90507e0d6f05a651df1606907084bf9d0c35afcbd912131402d2fc0a1dd20583d8322f6d44af9f2
6616873231062ada3f4c257056e1cd6ea60d522e5fa7f446a93fb8bd33ed0e81d704c0ede45322ad922c7ca0714611a0c509cfbd1acdbd8401af862d74692a94
8248cbe9b86fd7d867e1837ff2ab268a15088adcbe76ceb70db1a0e53440b8b9836edb8871cd581897f04bcf08c4baf509bd4e2b5f9122c3da10051b6d96bc2f
8ed119388f609ec17143803eccb2af26690edde1549310bad1449961e23605b76a79e4bdeed1d4f0c109dc244fae4dade74969739c2913c6e90411223f2826c7
add284d57f281afcdeec9fde3d86ee01584e151cb26abfa326103b8b02e2d5fd7ad1225d584a9fdc43ff9fa3549578db628ee828b1e551e4765cfcc466a620e7
d4e8d51c9f08f283a45f77d95d9ff75eca1ac1e8e0f013d1beda3965e0cac86265153cbc71b1c6d8750c41126b483b7cc0adf84324d93e361555a1f3ea9a99f6
c6859dc1f0842ce49bf4756f37ac0d4d83b59e4b99cadf4f8c644b8c6cb45b84c86ee3413b13b318006749d4a8dde8a63df5a74b0666375eb12653b9887fccec
e791e37d361b21601bc5172f643501e54dfa9e2126232d727f7a2c1daa6bcc14ad636d80962126f47c5594f37844838ea5dcac0f805d51e53b97b7588f234753
ea3f447dfb0ab74c80088572bbd7f208f8c568f06c766774effc6f4e96e8f846f739691d0fed011a66d42be99d3fd196524994c0a08fa282d6732e2bd0c03ac7
f9c254f7253b3feeda0cd49f25bba844918e1eed73cf77bb83cd2edfe616711a3ba60f2418769f533d28d77a6a8b46ab16c9ef84eefee50a5e7920238719d759
add01d1a080fe4b97f1bcfa2563512562fb6927b1f16dae86710968d6bd488822abfb7f4b7fd017b9abf476b602d9fc56d45e052f7784779a474ff71e47c7a71
3da5c686b0fedd6d9f2a61433126b21e83a0bc26b2a7783b8a01b552e6b77d826a79e4bdeed1d4f0c109dc244fae4dadb3f42356cac593884ff992cdf8d81e38
eab14696ba87785f0f70c3058194e77ea60d522e5fa7f446a93fb8bd33ed0e81d704c0ede45322ad922c7ca0714611a0c509cfbd1acdbd8401af862d74692a94
7dee6bda20001180e28ec5a8dcf25b5f21e2ec124b5fb83c51370ef8ac31ba46cd994056e3360b61dbc5cedca0ce50f1314c07d53a6318cdb446fdc4284653cc
d7512578e7ad2ecdf739c8fb18d39ebffaf3d1dfa2581c178093fb1b132c4a98c86ee3413b13b318006749d4a8dde8a63df5a74b0666375eb12653b9887fccec
f1a75ec1468e675aefeee5a3241dd379bfc079d6193c0caf963ace5ad9fa97e571cc478c986d284790ac5609a29ca4c03bf3f760c297b7dd91cf33f44aa82e43
ea1ed680ad9ebf3d76f66b4ae3b60d8ff8c568f06c766774effc6f4e96e8f846f739691d0fed011a66d42be99d3fd196524994c0a08fa282d6732e2bd0c03ac7
1ad94affce5cc8b8db929822ed88d8c66176d6b760c1bed7ea8c646d08b6d3af60926565d55f59a06de8eb524c215c2709bd4e2b5f9122c3da10051b6d96bc2f
ddfcab15b61f336ddf6a9ca51f1f9937e25d4902559722af60326ec27c64328616ad5fa934f347f00551842b3904c880db1125eaf6bbadb7cd526b9a73488d2f
574b4cf55fde510b42cc052b1565fbf21800d91bc299de4f80a9a4bbfe9c121ce84f303213d4607eaaf6470fb7780828193045c2e0fcdb7255c1db7df191acb9
6951ac4be664622bf4a471f8156554c380470aaf3853d70413c1676e746258d131357786d0fd4863a1e7a12fd2561e0406ed0adc540601ede0e03121246d1bf0
a692b320e57f56f5a60034073f57ef89cc3985b038c9256b4248cd302ae251db6c735995a7fbd595c3af8f39925caf531e787c83c0b254f15338c333f0378123
cc5202f79f65740c483d8a2e5c79b06293ad3d275c01256cb65613125edd8dd57e107120ea206a70baa33f89a6173ab5743b1e80226a7b3fb5e413291ddb1fb7
62c00bce016a7e2e5af09082a6c17e9d621b9059ebd9a6ee076940dae409fc681d94f6621ade70ead7eadca06a49a18a5d099a1855c00a9ed59d7b78387ba9bf
579c1e69ee6c81938a6c9854ea28aaab80470aaf3853d70413c1676e746258d131357786d0fd4863a1e7a12fd2561e0406ed0adc540601ede0e03121246d1bf0
4274b9a58f02efa163f976c6ebbaaddd43b2de31ddd0a8b94e1017342b2d1fc41df432a894cbfe105efc7a2f1dd073d1424a65d39896998a9b80c066f159ee65
419c96b153cfdefdf4506b0dafbd19c0f017a1075f60c9d6393f4e64ee9d5b3d489355d67d3b96d88c18a7835a46adbddb1125eaf6bbadb7cd526b9a73488d2f
62c00bce016a7e2e5af09082a6c17e9d621b9059ebd9a6ee076940dae409fc681d94f6621ade70ead7eadca06a49a18a5d099a1855c00a9ed59d7b78387ba9bf
23a44f269c3b6f1dd444d70583f4da36941d70cbf27c25384e600149d9c5e5932368d5e5fa66c751538cfa21a2b647412be830698c65c13c9b22b4656432e260
9ec767129535a256a786226caca9fe2181ba5306692f23baa906c800d7d80f732368d5e5fa66c751538cfa21a2b647412be830698c65c13c9b22b4656432e260
c3768a163aa410f2440315061cd059aec8f5449a72d62a78150366395f71da0368abf76b387d0268bf9546150a4c8642fba7d3cdda902d3a2d49ad6cbae45b4e
114e48bb3faad436c0adc66ac672c942c8a97bd400883b69eb8eda09b9d69d2a2368d5e5fa66c751538cfa21a2b647412be830698c65c13c9b22b4656432e260
0e1a0626b5ca62a3af18d2db69e1909d02ff0af5757ddc3691dce0293374d54d639d0bfa92d605b314a24788e13bda244d5e01f0bcf48ac3dea17827e1a4e12b
7dffd9c8442a91ee1645ee2e3d77547143b2de31ddd0a8b94e1017342b2d1fc4e117d4cc73563a020cd561efe9b6143e424a65d39896998a9b80c066f159ee65
f39e6d7d0eb2b7d9749dc5bc10e4278b47c300948ca6676559372d2c7aab9b4c87da542e1e88766eeb6c136a2c17a9a19ecb7666e704474207c5457fd70e4ebc