* CL05A105KO5NNN Multilayer Ceramic Capacitor Interactive Precise Model For PSPICE
*-----------------------------------------------------------------------------------------------
* Model Generated by Samsung Electro-Mechanics
* Samsung Spice Model Version 5.0
* Products : Multilayer Ceramic Capacitor(General)
*-----------------------------------------------------------------------------------------------
* Characteristics :
*
*     Nominal Capacitance = 1.0uF
*     Capacitance Tolerance = +/-10%
*     TCC = X5R(-55 ~ +85 degC.)
*     Rated Voltage = 16.0Vdc
*     Size = 0402(unit:inch), 1005(unit:mm)
*     Length = 1.00+/-0.05mm
*     Width = 0.50+/-0.05mm
*     Thickness = 0.50+/-0.05mm
*     Reliability level = Standard
*     Lineup = Normal
*     Feature = Normal
* Applicable condition :
*     Frequency : 100Hz ~ 6GHz
*     Measurement Temperature : X5R(-55 ~ +85 degC.)
*     DC bias Value = 0V ~ 16V
*     Small Signal as Network Analyzer
*-----------------------------------------------------------------------------------------------
* External Node Assignments :
*
*  1  o---||---o  2
*
*-----------------------------------------------------------------------------------------------
**$ENCRYPTED_LIB
**$INTERFACE
.SUBCKT CL05A105KO5NNN_Precise_Interactive Port1 Port2
$CDNENCSTART_ADV2
17f62b1fb318c25603aeb85644ae98a5d179ef807807791f6459efacb9d7ffc35a73a37243d4cce46a460e928d7c8f9c39ee99122a9d3f96f7d47fafa32ba578
f42281a1e01984ca61ee9568245776d80530244a17a14619c2ea4aed6910fcba59cee04865e9bc14f0b6ed9d7801ca6c8ca9beef3bc37bcf7fd48e9572a2e4d0
3c4533e19ba27f087e3dea5af6a6c27541eb14c548dcb275b3cf4dec2761b5a676a261cfc41b4c744fae8e8d26e5268fc637d153844ffab5f8bae1038fb46ec2
3cc7f312a8ced82836372a2d32087d2efdf33f9d43b9819777b42ac26e3834119dbda80bced44f9406a33c321af76c6129dc889cc483d79dca03aff4ebfcba58
b4d968fb2dc568b956601e88e67947e1e1afd9dc79f85450019edc7a262cda2283851c1bc7952bef0d0a7f1441e62ed5cdca6a3172c02241fc4c6dcaee6692c8
997689520ae0d887bde4e54860eaab219b8166ae30e9ef3180bad5e277abe495f750e5cf9d65dde10f80e74cdc6a4957a81f59993d2e79846beb8ff9c7656824
064417fb6bfccd888edd57f8b3a34e0f3d3ca26f28e80676b5cf1453d7be77c572499bab213f8e35277ff977dd659bc48b9656da19bd9d263e4e9c3fc81093c7
37c1be9169c979bcde0377a7dca84de5e3d0c1f6a1193daa0a0c3f8056741c2636d32598dc7447e8fd05b53812995e51df9630fb8b559391a8714052e03c7aad
86bd874f58d635360bc9fde8100391f3abc12a91777cc2999a8f235598b615eb59cee04865e9bc14f0b6ed9d7801ca6c75eb11f7c9327f0875a1bb1f5eb1ecd8
d3d4ebee2de492a62931fc372a7b539f587df992945f2e2203e48a1cc4921a6101e72f9a3858e5bd43f0cd0b9cbc7ba5e3cb99c310ce573646bcf485a1fc3ae3
0f2abbfa2b55b200566095267f59fa9af8d77d9ca0e573501efb6ff76078265e86c5fb7bb7571974e992fc3e5ab1af6ac4fd2a38a61678be4c4a77b94775e532
a483e81e66e32b986d40127b331fd4e6b6b5d69864ddc384fde7a228a571a4e7f93d97dc990e6475d564de83e598a08f018a2293fc712f54833937f299eb6587
1a08c9556d9caf9b4f09099ef19ae331d43f3ddffbf6fcd5751ecb2cadb5b86fcd987c4534b29502acab2e927f7eed30642dcbecc8cfbc12d0933d668dcbc197
c7283fb654961ec76eadd6bec233bdb7759f9e5bdf0ec9afd28eedfe642f04486e8a97ba4c953e7cf47086e31eae35dd1b991b080d4730aea00831b8bd147fa3
33b43805f9283bf206bae9e6c5cda30fcd2e77bb212357c5862edb932a907bcaf06a3474b7e57f904bac55dfa2290259a93f544976b0a489e8000833bec6be23
200ed022c151f872c3927a0ddc33fa39517e580e79548316828559a6e27d144a1fb93cf922134a7887f1c0e74a9604d60a7f59b12fd0d35b765ad4967c516784
863e30b5d077e94bcdbf5ca735dee6caf6f5406fc74b7992464e6090f30ed7dc59cee04865e9bc14f0b6ed9d7801ca6c18d897df112863c88cb72dfeaa255439
ad07ed5758dcd64a3f8dfeb49a976d0c41eb14c548dcb275b3cf4dec2761b5a676a261cfc41b4c744fae8e8d26e5268fc637d153844ffab5f8bae1038fb46ec2
38a4d90dcee67809cdfdbd953de0c6cf78fe32e5af6e1bc59a1b6b45b96571abdd39f5ffe4c5af001db59f6d273a186caed7d6e36e74d54a1d21a85293cb9012
88a3fde781dee140d507b06a7d55dfa5e1afd9dc79f85450019edc7a262cda2283851c1bc7952bef0d0a7f1441e62ed5cdca6a3172c02241fc4c6dcaee6692c8
900c6723f991d3d0d9f4c998e5a5a0ee4c69fe625a8de8f4f3e1a5babe3eca664e953e8fda1d55edb649f6f85f6750672b64eaf670aa94b742667018ab4c0796
06e44b2090b9a410c912a0ae3624d880759f9e5bdf0ec9afd28eedfe642f04486e8a97ba4c953e7cf47086e31eae35dd1b991b080d4730aea00831b8bd147fa3
53af02cc7193647a19a566450c78a751bf2b27f50428d5d8e3a084264e9e39a3f7408787803ab5a793dc02f78d78f6772685d94bac2869314ca3462cdb1a6b5a
32c35bf5014e8d856dbbbf527c0d38d7683ee210daab68482169e9016a6a70588ec5b2fb8aed02d11b40159277677ffc81852c8f36097684d3500ef85e9fa17e
da8520291de3a8a0990f927318eb8b493d3ca26f28e80676b5cf1453d7be77c572499bab213f8e35277ff977dd659bc48b9656da19bd9d263e4e9c3fc81093c7
cdc88ec88e4c84b74e222c1e9ef4218b587df992945f2e2203e48a1cc4921a6101e72f9a3858e5bd43f0cd0b9cbc7ba5e3cb99c310ce573646bcf485a1fc3ae3
9436275f000b5b8c9bbc9a7e356f32d1243978b95cb978c5c42600b5405d6ebd4fd482ee223502277eb6fb41ffb85478cf250f39198604143e6a07b3a6c251a0
f4173bd2bb09df0fab0fa55c89ce4bd3df19da036203dae54184958f115d33c041947e5851d3d51634d00f89a36f79c60246efe4fe9266a669907c770e7269ca
973ba4ccc2530f203eefe4e58b318f98ce47a93d87a566d29fab161ccb126dd0336cfcfb06c6a86e610f9bf92f35dfccd72b4d34f30f48a29d1d3e38360fa23c
cdc88ec88e4c84b74e222c1e9ef4218b587df992945f2e2203e48a1cc4921a6101e72f9a3858e5bd43f0cd0b9cbc7ba5e3cb99c310ce573646bcf485a1fc3ae3
3ab1019e089e885e7907b6fea77bf941243978b95cb978c5c42600b5405d6ebd4fd482ee223502277eb6fb41ffb85478cf250f39198604143e6a07b3a6c251a0
6e0d79d96d54093845de8e3a87b861b6a4b0ef7b53c708c5c93a12cecc633c8e419c96b153cfdefdf4506b0dafbd19c04505110f3bf9a2a630b5c2b9446a38b4
86be4f2bf93b143a68b0b296e54e09f14edc3b83455a374832b163c1fc9a2d0fb6b5d69864ddc384fde7a228a571a4e7fd4dca455693cf280d43174422c6cbe7
cdc88ec88e4c84b74e222c1e9ef4218b587df992945f2e2203e48a1cc4921a6101e72f9a3858e5bd43f0cd0b9cbc7ba5e3cb99c310ce573646bcf485a1fc3ae3
01e3786b871ba9e3269e3624fbbecd545d6702fee75aafddd0c655027a50fc01d226d8e9ad2ff45ee83c8095ec8c48fa52fe907ef1b85c173a4c9146dddaeea3
4666aa858079ab80e559cad1c0372496e729d0f6b9a3d087d410bbfbaf52d6fc1083ce258db608d0349ed4fdbeae5c410e2be4c72907c92da4859df41b2679c4
4286f0e9e6bff4d4dacd5e300f2ca4f7e44efaa20efc0bd6beb7b68d5fecbab09cd221d7ec50355a9bdbf9a4a2ca5c15c2a40a30ae78311ce971f00aad7e5a3a
113519776a59987af694af628617d9deda5857a6beabb43df84888c13792a0ea1083ce258db608d0349ed4fdbeae5c410e2be4c72907c92da4859df41b2679c4
5e133fd5cd3e1be244a44d3440309c68532f43fc3382e5a83baf9e8993b70b6c7b328b4bbec8e219da4c8c9feab89ae7f11e870843759baf2c7fa1b8a996d80b
13701b0719770874395bcb80871e89eaa4b0ef7b53c708c5c93a12cecc633c8ef39e6d7d0eb2b7d9749dc5bc10e4278b4505110f3bf9a2a630b5c2b9446a38b4
0ef3e77d06658dbd9c576cf8f4f498f0023d0202795b61d0fe98a61cd7a346891fb1271a5f728798e630a2c1e00afc400e2be4c72907c92da4859df41b2679c4
cdc88ec88e4c84b74e222c1e9ef4218b587df992945f2e2203e48a1cc4921a6101e72f9a3858e5bd43f0cd0b9cbc7ba5e3cb99c310ce573646bcf485a1fc3ae3
110e7437c591fff0a4d989832e25b528b406c997bfe534d41985576daad65cc01083ce258db608d0349ed4fdbeae5c410e2be4c72907c92da4859df41b2679c4
f72801e3c7db43ede577df5f939bd78c5ea02ff802ad45f0c050b6f0b00f297f1083ce258db608d0349ed4fdbeae5c410e2be4c72907c92da4859df41b2679c4
ca81feade30ebc93a9f3bcd7fd9bc17b7fd56cc2845a0148e51a993b31e1e5661083ce258db608d0349ed4fdbeae5c410e2be4c72907c92da4859df41b2679c4
e8e7597fe5249a7ca05ac6982334acfbea950076c58d58ed8973e2ffce859e5d1083ce258db608d0349ed4fdbeae5c410e2be4c72907c92da4859df41b2679c4
9e85fe6c3c1e8e4126a1bece19c04aef09052dde095028e9ad215dbfb0b7abbe1083ce258db608d0349ed4fdbeae5c410e2be4c72907c92da4859df41b2679c4
d8d7c77eda2aa5a97e49500fd792f4c86871de56cc7cb5cfe0521faf237e4aa01083ce258db608d0349ed4fdbeae5c410e2be4c72907c92da4859df41b2679c4
b69f898cb814d59183a1a5e225528244ac2a39311faf08bc08fbed15cc822ae5d226d8e9ad2ff45ee83c8095ec8c48fa52fe907ef1b85c173a4c9146dddaeea3
f6020abc6c9322b84521c7ea74651afc0467189194ff989670169520d0a8d17ddcd23f38f50b2a8149ea2a735e98de6b2421a1a52be59b68c24a9d9d11341938
837e9fc59d12675c2a39c2e1982c1ed7d664f78dcc5cc6f4b13aca4e36ac71b2b6b5d69864ddc384fde7a228a571a4e7fd4dca455693cf280d43174422c6cbe7
4770dafe6d85a90cb94c07494d5e99df0db0c5606117f56870a9806056682ebb3af2a7c1d9b44d96712f0339a66ddc79c22c77c9243c38989b7afb98fa6bb1c7
8758468462318bad25b62e1ecd13e42d9ce5051888dc9e648374ea68f7a444afe73705c5a2243e6b098f4ca5a48a9f1d44218d24b6a488fe321b5441d4332dd4
cdc88ec88e4c84b74e222c1e9ef4218b587df992945f2e2203e48a1cc4921a6101e72f9a3858e5bd43f0cd0b9cbc7ba5e3cb99c310ce573646bcf485a1fc3ae3
407404319c2205b345fb51e83ae83c513e4292db06c65bd52fe13992abe6f220282caa3d79f0a890c4b4f27b14acbb60366e8aec84ef122da330638670a30e19
e306ad8e34bd7bad0f93d5fd8894410166d7ccb273bedebe5b979f4a6222b18b8e3519ca268e1a757b90fe3eed9952e7b1b7908327525990d4582f5180675574
7e47d566c50d25c26b227ab3d280cf043394a3405f960b9372f7258c02fa0a5e5753126b274da349fba9b5758cd1536241f2e005b0146b436f39bd9117f0bcd7
d3525f6e576954e87cc59ad46e8845eab6b5d69864ddc384fde7a228a571a4e7f93d97dc990e6475d564de83e598a08f018a2293fc712f54833937f299eb6587
f57cc7e3f91c6be73f5eb6772defabf820666f51eeec357f4f512931757d397c5d6ac7d6969418d0c3f672560e8927d1bcb6e909e1baf23db6b94a40cb50c9f4
8a9573f8527a7a74afe70aaff7d90c57f73a9481844be4129cba0272ca0e36a532cddd6c151308d30b17f547aee8150c3ab91364fa38376600ccb920449c4d3f
f68d00d2054d1963a0dfb35ece007c12ab9aa9e71b0224c0d9b45e2652af8d05063c8dd95291c62d20c3c218049305f117ce0919def4db1bb3976e00db8536d1
4c934ab50ccde9021ff13ba77e2111f4caddd289b243d06c3d7071a503c1d8ee282caa3d79f0a890c4b4f27b14acbb60bb7714292dd7ab2e98f699df0f10efc4
080e498ffd0fcb7e6c0c2405d01af394587df992945f2e2203e48a1cc4921a6101e72f9a3858e5bd43f0cd0b9cbc7ba5e3cb99c310ce573646bcf485a1fc3ae3
68bbb74b41313a54b3b06a83e647e3b242ec7c7bc95187250a357c7424beb61ee98342c495ee0a77913fc67963f9d89ce07cca114fb8caf0d545e2c7ceeb8df8
1e90916f40356602a4e7a7f057bf0fae38c47916820cf8b48607dc7028962f3cf7036691c2e3ce5afc64649c7c3e46861d789df3ddc6f3df036ee49574644801
de47efc40e5301805e515f868964dd88061f08a9997ff6b51d1df18420a581b33acd714326846b9f68c6cdb3a103867832b23ae0c1928a929bbac166e33ed98f
f3981399dd35848fd6691ecb653f64a2f73a9481844be4129cba0272ca0e36a532cddd6c151308d30b17f547aee8150c3ab91364fa38376600ccb920449c4d3f
1eb5a2054aa575d8adfcb19e8202a5625c6d6677667209b70a23436223ca0651f346a036f2a6d0880f1b5ad834b20d4817ce0919def4db1bb3976e00db8536d1
c164efad3e353e9883257ed39eba25e218bb65d3bcb87ef30fb25fe4150b99b41083ce258db608d0349ed4fdbeae5c410e2be4c72907c92da4859df41b2679c4
613f82500756374813514ebb359b9b2356467ed112045e3965baf5e8b0f9ee0a53bc9b7acac7a1b2540e147bf91e0b130e2be4c72907c92da4859df41b2679c4
5c4c2aee47bb85ffa914d60ea4797a4179178aed800fef4053febbc2030d1ae8c301f27ce92b5a0357ae6c299bacf417cf250f39198604143e6a07b3a6c251a0
18ddb3b001b61a493154647425b86d39280d98d1f7e3e703ad0b63b15ecd1a464fd482ee223502277eb6fb41ffb85478cf250f39198604143e6a07b3a6c251a0
7cde44140ea9a8ad908b212fe8824ae8c5a6daf7cb9989c120da48bec2d1c75a9a77c43676894f78dc33fccc5c29e352ff6402cc2b1e36f03eb7007f168d3438
8758468462318bad25b62e1ecd13e42dda7006b720b2c480774c579a19c960d7b6b5d69864ddc384fde7a228a571a4e7fd4dca455693cf280d43174422c6cbe7
cdc88ec88e4c84b74e222c1e9ef4218b587df992945f2e2203e48a1cc4921a6101e72f9a3858e5bd43f0cd0b9cbc7ba5e3cb99c310ce573646bcf485a1fc3ae3
c264875952479367c09dc954a2db32c02e676fce9b46cee63983f476882fca2a7e8d664a0ae1bd2c7e6dc0ddd4ada7d9f11e870843759baf2c7fa1b8a996d80b
86b0776e3159529a8d5ca6b2713c65f0b6bfccb0d9622cfbfa1a47cf46a9e2c47e8d664a0ae1bd2c7e6dc0ddd4ada7d9f11e870843759baf2c7fa1b8a996d80b
3987943fbe77160511cec572ea69cb8704d9577a8516e12c4f99c3ce63745c557e8d664a0ae1bd2c7e6dc0ddd4ada7d9f11e870843759baf2c7fa1b8a996d80b
1cd148cae0cc6c263a06a82b5a616d839a6e17f968ee6e0ccd721c0d98f3f3fccdd00ad148f83b2c8045853fab65d6030526921abc9429c3c76cea6086dc0923
3f1e6fba4a0d369f2d20db10ace6d978d7b9a93e87ceb4a54843f92594a340f6282caa3d79f0a890c4b4f27b14acbb60cdd8cbca5ddb033fde1143b38d2a6a46
ba16ff721a47034b3dcf72be37bb2b0966d7ccb273bedebe5b979f4a6222b18b8e3519ca268e1a757b90fe3eed9952e7b1b7908327525990d4582f5180675574
55ba1b3a1e6f8035e89b1e04a0338c188a2d2535d31ff6475a3de9afdee701cd195346ea161ce4e9a0cfe2cc1545560cecd14d251270ef0c7016475f3bcd14a5
3ba646d27b5d585bf350ab3921d20c9fbdb1e59d6a953af6745ef70edc00c97266d7ccb273bedebe5b979f4a6222b18bf60bdbe79068356cf5ec0d6fb6d386d4
fdcc1ad9d59d9c4d4ebe75274bbe172be6aed2d31b3250d194cec11d315fe1f3e3506a320e1d2552310fd95e86120f3467bd423de45760eb830e9f7cf06008c6
66db01ad51e029264c866d7f73cce4af5cfac965e3a70a414d04110be43579cb49f4c27597ef7a825e0be9660587ed27fefcc72cc5b10c9f0063f55bc8bb1c8d
6326a384d44022e07b00173446600d932dbd3c9b34f5aa12bde9a92d19885101180940c1c73ef382387bdb3aa001580aeb075cb34183cde063921a98ca3a93dd
70f0059dfe7f74c8d54654985f5756f85e09fc7c3a8027e4b0498d6d6d734a56b6b5d69864ddc384fde7a228a571a4e7fd4dca455693cf280d43174422c6cbe7
510fb077c36880288d370ffdc1e246dff54e46d4ae6d36d760def9b34b9aab41866ed50c60800f5c583060759074495aefba1fa454f47781ffa7d92ee3898729
717d3bdca20de83e401e082357e179566838452b7a6febc215ced5dd95de55d861444206f26c8de544cbac4d50a16f8ec4d9866b526f4bbcc8e73e8ced0181df
cdc88ec88e4c84b74e222c1e9ef4218b587df992945f2e2203e48a1cc4921a6101e72f9a3858e5bd43f0cd0b9cbc7ba5e3cb99c310ce573646bcf485a1fc3ae3
a765dc6b57c430c12d2ab8204b3fc7395e09fc7c3a8027e4b0498d6d6d734a56b6b5d69864ddc384fde7a228a571a4e7fd4dca455693cf280d43174422c6cbe7
954560fe98b2ccf9d9f121ec50b92775792d95225d2537c9fa82c1cbc0b4609268d7a228a48d08accd0b9f1637abd2e3665d33566e49924ed6c86ee6ec6bd41b
8758468462318bad25b62e1ecd13e42d7d8c7ab5856cd95a24d8077fdaf7e5f7e73705c5a2243e6b098f4ca5a48a9f1d44218d24b6a488fe321b5441d4332dd4
cdc88ec88e4c84b74e222c1e9ef4218b587df992945f2e2203e48a1cc4921a6101e72f9a3858e5bd43f0cd0b9cbc7ba5e3cb99c310ce573646bcf485a1fc3ae3
c61b593ec47f1631be75b0a57268eb9de10108eae84fdf657019190f87c23b32282caa3d79f0a890c4b4f27b14acbb60d27e6067b656e74adeda49c7ba9aac54
d3d4ebee2de492a62931fc372a7b539f587df992945f2e2203e48a1cc4921a6101e72f9a3858e5bd43f0cd0b9cbc7ba5e3cb99c310ce573646bcf485a1fc3ae3
cf3e871ed72324a362cce253ee73c3312ab4a21854f4a3a0a5bc89398ca9baea59cde482fd0a319814be06ffb3d2466f709d9abeb2c1e3343219f3b775619145
c9431a4dd58685c73de316f03619c023b6b5d69864ddc384fde7a228a571a4e7f93d97dc990e6475d564de83e598a08f018a2293fc712f54833937f299eb6587
1494574c085111afe95bc46c7fad27c0e9d454da30f81177725363f32653677a10b30e04fecd4b7cf81004d0f3f42a76cad67faa3d62058117304600ed2734df
5c9fa014d5a329a684a091d000a64578759f9e5bdf0ec9afd28eedfe642f04486e8a97ba4c953e7cf47086e31eae35dd1b991b080d4730aea00831b8bd147fa3
efbb3092e93f5bfad85eac2844859106caf8ad0da1fe1ceaff928158ddcba04a467493d6e0046e5d92d19c6b894809a6362f7daab66aa9ccf15d864e8a319480
590df3561c4c93027da52a32dec6120d8e2ff75e56e4185ec8f4de51fd7e62641083ce258db608d0349ed4fdbeae5c410e2be4c72907c92da4859df41b2679c4
5380889b2fa2f0c2bfd3e1731ccfd8edeff99fb65ecad0ceb1b6e94695b6fc2fc301f27ce92b5a0357ae6c299bacf417cf250f39198604143e6a07b3a6c251a0
31f2c8bf245b60b56c0248df4c62b1d05d828212cd144cde3d356158b933a2a07e8d664a0ae1bd2c7e6dc0ddd4ada7d9f11e870843759baf2c7fa1b8a996d80b
712c2d817fb61f68bb87e8525c1cff64d7ffaab9e63f74511dc4b247ed5329bf7e8d664a0ae1bd2c7e6dc0ddd4ada7d9f11e870843759baf2c7fa1b8a996d80b
767a81a4eb7e96c210920a5559f7064adce8640398aec5d2fbee4a5af6cd8b477e8d664a0ae1bd2c7e6dc0ddd4ada7d9f11e870843759baf2c7fa1b8a996d80b
503431dba712c0dadb4d5ff1e64573e0939c351943798871de6e3bd2ad0dfa127e8d664a0ae1bd2c7e6dc0ddd4ada7d9f11e870843759baf2c7fa1b8a996d80b
75f5216d06ef3386128836a2dbad79790467189194ff989670169520d0a8d17d6ce7c922259e84d897dd9997d782c03a15ffe5eabc463f748b0b0695b2676c2e
66088ccd334b5c2b08f610b11af1f101bbea993b6cbf005ed6164e6286e14f5eb6b5d69864ddc384fde7a228a571a4e7fd4dca455693cf280d43174422c6cbe7
091b90440748242a27790dc5275923c1a0121d85696ce53100b9b4c51c71ebbe3af2a7c1d9b44d96712f0339a66ddc791a4629e1dd7f0256b604daf9ca9424fb
8758468462318bad25b62e1ecd13e42d14c28237f5eceec8eb7dd319877afe9ee73705c5a2243e6b098f4ca5a48a9f1d44218d24b6a488fe321b5441d4332dd4
cdc88ec88e4c84b74e222c1e9ef4218b587df992945f2e2203e48a1cc4921a6101e72f9a3858e5bd43f0cd0b9cbc7ba5e3cb99c310ce573646bcf485a1fc3ae3
1c635d6fbc47008f3e616e608e9a60053e4292db06c65bd52fe13992abe6f220282caa3d79f0a890c4b4f27b14acbb6000a4f3188d88f09318b82e5eb524999b
d3d4ebee2de492a62931fc372a7b539f587df992945f2e2203e48a1cc4921a6101e72f9a3858e5bd43f0cd0b9cbc7ba5e3cb99c310ce573646bcf485a1fc3ae3
329893f2f9dad94cbf8c5bf462a78c6109dbc333507b46b27ac856f2705cf4178ebe92eb4184870cf8a08e89b1bad21f8669ac97bb563103ee24ccbda41c44e6
4be89adb9885ca818ca0500ad147a3d1691286ef9a7baf5daac6b0a7d17f7800d0ffa78f17872ff73504bfec6dbfaf08f6d470bafa1d9a05bfbb685a9dce7676
329893f2f9dad94cbf8c5bf462a78c6109dbc333507b46b27ac856f2705cf4178ebe92eb4184870cf8a08e89b1bad21f8669ac97bb563103ee24ccbda41c44e6
ba16ff721a47034b3dcf72be37bb2b0966d7ccb273bedebe5b979f4a6222b18b8e3519ca268e1a757b90fe3eed9952e7b1b7908327525990d4582f5180675574
329893f2f9dad94cbf8c5bf462a78c6109dbc333507b46b27ac856f2705cf417816c6bb0af64e79080aca4f895460a77bbcc0cd1e927959ecce7baddd2d9c54f
0ed63cdd3ad7d1548fb3d34374e9454fcaddd289b243d06c3d7071a503c1d8ee282caa3d79f0a890c4b4f27b14acbb605c6e36cfaa1d01524f64bf1570e43f28
080e498ffd0fcb7e6c0c2405d01af394587df992945f2e2203e48a1cc4921a6101e72f9a3858e5bd43f0cd0b9cbc7ba5e3cb99c310ce573646bcf485a1fc3ae3
329893f2f9dad94cbf8c5bf462a78c6109dbc333507b46b27ac856f2705cf4178ebe92eb4184870cf8a08e89b1bad21f8669ac97bb563103ee24ccbda41c44e6
4be89adb9885ca818ca0500ad147a3d1691286ef9a7baf5daac6b0a7d17f7800d0ffa78f17872ff73504bfec6dbfaf08f6d470bafa1d9a05bfbb685a9dce7676
329893f2f9dad94cbf8c5bf462a78c6109dbc333507b46b27ac856f2705cf4178ebe92eb4184870cf8a08e89b1bad21f8669ac97bb563103ee24ccbda41c44e6
ba16ff721a47034b3dcf72be37bb2b0966d7ccb273bedebe5b979f4a6222b18b8e3519ca268e1a757b90fe3eed9952e7b1b7908327525990d4582f5180675574
329893f2f9dad94cbf8c5bf462a78c6109dbc333507b46b27ac856f2705cf417816c6bb0af64e79080aca4f895460a77bbcc0cd1e927959ecce7baddd2d9c54f
2ca728937d85c52404c68a4d270e723a95b4b4db0d201ed503faec4524cc08ca1083ce258db608d0349ed4fdbeae5c410e2be4c72907c92da4859df41b2679c4
4ea1da0bb7409dddaa08a03fd4d0fffcdcbaea8592eba80f15539e202b858ddc53bc9b7acac7a1b2540e147bf91e0b130e2be4c72907c92da4859df41b2679c4
9e9f83a1c4a155b5a4cda59eb73eb2bf79178aed800fef4053febbc2030d1ae8c301f27ce92b5a0357ae6c299bacf417cf250f39198604143e6a07b3a6c251a0
3205f5b1a35ad9b71fde283399035809c053349a231d0e3a810325a74d1e4b2d4fd482ee223502277eb6fb41ffb85478cf250f39198604143e6a07b3a6c251a0
a39c7d60a147f7fdbb7768155adf907c815c3db210c992b24bf1fbced4b851f69a77c43676894f78dc33fccc5c29e352dad89db0d69ba90732a360d57aea3f2a
8758468462318bad25b62e1ecd13e42d7b40591f8402cf6b7731665898500f65b6b5d69864ddc384fde7a228a571a4e7fd4dca455693cf280d43174422c6cbe7
cdc88ec88e4c84b74e222c1e9ef4218b587df992945f2e2203e48a1cc4921a6101e72f9a3858e5bd43f0cd0b9cbc7ba5e3cb99c310ce573646bcf485a1fc3ae3
4e8d828b69f152a4f890e6c2d32debc62e676fce9b46cee63983f476882fca2a7e8d664a0ae1bd2c7e6dc0ddd4ada7d9f11e870843759baf2c7fa1b8a996d80b
ceb818c201628c093c2108a663c31dd7b6bfccb0d9622cfbfa1a47cf46a9e2c47e8d664a0ae1bd2c7e6dc0ddd4ada7d9f11e870843759baf2c7fa1b8a996d80b
99f18a4b181a72f22880a7a2306e394b04d9577a8516e12c4f99c3ce63745c557e8d664a0ae1bd2c7e6dc0ddd4ada7d9f11e870843759baf2c7fa1b8a996d80b
7ee4ce050df77826b58afe1d495ecdce0467189194ff989670169520d0a8d17da7d8de97e74012590cab315981be02b8a269ec972652b15c1937f0db599e0316
40dff9c3aad74b919a2ff152361d1de1f85b332a8cca644fed45c2166605cc08b6b5d69864ddc384fde7a228a571a4e7fd4dca455693cf280d43174422c6cbe7
46b22bbfefb41c2d39eda7875ebf6f5a78a1a6f4329fe563178844dc9519e05b3af2a7c1d9b44d96712f0339a66ddc79a61e730f6c5d3db6b802e319c6f7d07d
8758468462318bad25b62e1ecd13e42dbe8902e1204308431fffb52609feaaa7e73705c5a2243e6b098f4ca5a48a9f1d44218d24b6a488fe321b5441d4332dd4
cdc88ec88e4c84b74e222c1e9ef4218b587df992945f2e2203e48a1cc4921a6101e72f9a3858e5bd43f0cd0b9cbc7ba5e3cb99c310ce573646bcf485a1fc3ae3
80da9e7df6737d090acbbeabc72425b03e4292db06c65bd52fe13992abe6f220282caa3d79f0a890c4b4f27b14acbb6000a4f3188d88f09318b82e5eb524999b
d3d4ebee2de492a62931fc372a7b539f587df992945f2e2203e48a1cc4921a6101e72f9a3858e5bd43f0cd0b9cbc7ba5e3cb99c310ce573646bcf485a1fc3ae3
329893f2f9dad94cbf8c5bf462a78c6109dbc333507b46b27ac856f2705cf4178ebe92eb4184870cf8a08e89b1bad21f8669ac97bb563103ee24ccbda41c44e6
4be89adb9885ca818ca0500ad147a3d1691286ef9a7baf5daac6b0a7d17f7800d0ffa78f17872ff73504bfec6dbfaf08f6d470bafa1d9a05bfbb685a9dce7676
329893f2f9dad94cbf8c5bf462a78c6109dbc333507b46b27ac856f2705cf4178ebe92eb4184870cf8a08e89b1bad21f8669ac97bb563103ee24ccbda41c44e6
ba16ff721a47034b3dcf72be37bb2b0966d7ccb273bedebe5b979f4a6222b18b8e3519ca268e1a757b90fe3eed9952e7b1b7908327525990d4582f5180675574
329893f2f9dad94cbf8c5bf462a78c6109dbc333507b46b27ac856f2705cf417816c6bb0af64e79080aca4f895460a77bbcc0cd1e927959ecce7baddd2d9c54f
f13a46832d066f1c40c169ed70d6fa67caddd289b243d06c3d7071a503c1d8ee282caa3d79f0a890c4b4f27b14acbb605c6e36cfaa1d01524f64bf1570e43f28
080e498ffd0fcb7e6c0c2405d01af394587df992945f2e2203e48a1cc4921a6101e72f9a3858e5bd43f0cd0b9cbc7ba5e3cb99c310ce573646bcf485a1fc3ae3
329893f2f9dad94cbf8c5bf462a78c6109dbc333507b46b27ac856f2705cf4178ebe92eb4184870cf8a08e89b1bad21f8669ac97bb563103ee24ccbda41c44e6
4be89adb9885ca818ca0500ad147a3d1691286ef9a7baf5daac6b0a7d17f7800d0ffa78f17872ff73504bfec6dbfaf08f6d470bafa1d9a05bfbb685a9dce7676
329893f2f9dad94cbf8c5bf462a78c6109dbc333507b46b27ac856f2705cf4178ebe92eb4184870cf8a08e89b1bad21f8669ac97bb563103ee24ccbda41c44e6
ba16ff721a47034b3dcf72be37bb2b0966d7ccb273bedebe5b979f4a6222b18b8e3519ca268e1a757b90fe3eed9952e7b1b7908327525990d4582f5180675574
329893f2f9dad94cbf8c5bf462a78c6109dbc333507b46b27ac856f2705cf417816c6bb0af64e79080aca4f895460a77bbcc0cd1e927959ecce7baddd2d9c54f
bd6bc30f05f24e282b29ba89dd8d998d53262f60f097dbea7f3336e79b5eb8d01083ce258db608d0349ed4fdbeae5c410e2be4c72907c92da4859df41b2679c4
c9c7014897cc2b41bbae384ba28d9c674b22f0acc5fb91016413bdb3014d220653bc9b7acac7a1b2540e147bf91e0b130e2be4c72907c92da4859df41b2679c4
45b01bfc13be4079d8f526e94a88f7db79178aed800fef4053febbc2030d1ae8c301f27ce92b5a0357ae6c299bacf417cf250f39198604143e6a07b3a6c251a0
597a0256d5788261f230d472ee42aec2fcfb4426355da166c9b5c743c57822c94fd482ee223502277eb6fb41ffb85478cf250f39198604143e6a07b3a6c251a0
e95ed95ef11f9555ff78aca7ff0de5fb45683fe53110be811f5761c27d67c6689a77c43676894f78dc33fccc5c29e352f299624bff515253451d68d4bd54a3fa
8758468462318bad25b62e1ecd13e42dd60bcca441d6b552eb7e3d53b96ae2b0b6b5d69864ddc384fde7a228a571a4e7fd4dca455693cf280d43174422c6cbe7
cdc88ec88e4c84b74e222c1e9ef4218b587df992945f2e2203e48a1cc4921a6101e72f9a3858e5bd43f0cd0b9cbc7ba5e3cb99c310ce573646bcf485a1fc3ae3
4b0f75a29ba6f4063c49d3f5b2f3333a2e676fce9b46cee63983f476882fca2a7e8d664a0ae1bd2c7e6dc0ddd4ada7d9f11e870843759baf2c7fa1b8a996d80b
a8750e016a115a5ca52468bacedb2990b6bfccb0d9622cfbfa1a47cf46a9e2c47e8d664a0ae1bd2c7e6dc0ddd4ada7d9f11e870843759baf2c7fa1b8a996d80b
c80e1a9e7d8219f74dadec45fcb835d604d9577a8516e12c4f99c3ce63745c557e8d664a0ae1bd2c7e6dc0ddd4ada7d9f11e870843759baf2c7fa1b8a996d80b
e675f0298afa729bab4ecf8305913f314641c3438416463f6c828e966277b5b67c3f3eb4fd1a3395a65f5a663a3d5bf002c25b7fa810e0d60451e24bddbcad95
fc9f2c8ea8a630a49321840114a8935074a3e38591d68b8ca64cd41f460ab2b08142da4c9b0a2dd5a98bd5528b4f2423bbf63aa21a46e5a8555f0a750ab7395b
d7a2492ad7c2706f31ef959c238e69a5e1afd9dc79f85450019edc7a262cda2283851c1bc7952bef0d0a7f1441e62ed5cdca6a3172c02241fc4c6dcaee6692c8
c4f8e279b900f6850f69adee6c5e608c1950d69f6740b330bd52862c0ef3f0a2c7cd072f45442b82093fda3df093680d62cba0db49efda37e683c02c76ea5321
7481f19dc0ad137ba2c96b8aa8e5ac5f3d3ca26f28e80676b5cf1453d7be77c572499bab213f8e35277ff977dd659bc48b9656da19bd9d263e4e9c3fc81093c7
a11d99f590aec8662bcd4d5c6ed7f152fd17753285a38568b253c4ae6807f6a177f4f2ab3c8c541ee87f8eefb229bacd17ce0919def4db1bb3976e00db8536d1
31151bb1a12f4d7842be6ada0e0d4e3f81f7dbb203dbe399fa7b81f674e5059b642460820b689c7fc64d73d8429864206ea6b1933d42f544becbcb7de2d7a1ac
05bfc5cd66a9007b2c3c41b8fa14d8d1e3ac5a08c7ac47be924375adc89b377a27a033ceaa9fe5b4c633ed2c296d7608f11e870843759baf2c7fa1b8a996d80b
1d1d78d5a57f6c1da8dfcf47699348ea6b92c64866e6f8d4d527e6d1e6478fdee1afd9dc79f85450019edc7a262cda225676e6ef890c4fc2afa4f262221733d2
8c7ba2cf1a6f7c875610b72ca6519d9562dfaedafce7375ab8fafb406d131940e1afd9dc79f85450019edc7a262cda225676e6ef890c4fc2afa4f262221733d2
fe45b15eb93c07d8ab5480117059e334858d57fd29573c066e96555ec2e631c909b838486b3af7bab33a0a57107b1684314b55a658b54fc85e1710acea0855ea
7ff1225a2605c237cde6629d74cd8bd0b3a3b2c33edf7176aba60db866c9badde73705c5a2243e6b098f4ca5a48a9f1d44218d24b6a488fe321b5441d4332dd4
cdc88ec88e4c84b74e222c1e9ef4218b587df992945f2e2203e48a1cc4921a6101e72f9a3858e5bd43f0cd0b9cbc7ba5e3cb99c310ce573646bcf485a1fc3ae3
31789c5ecf822b1c0f10b940a6cc87bfd4759b057dd001b57b5654af501d2b5ef02d40cde8783311240938d963f09dfbc4d9866b526f4bbcc8e73e8ced0181df
55c0f0627f1c4edace534a391dcaf19a3f372a2f3b6c3d6dbed1e41c76abcd3cb6b5d69864ddc384fde7a228a571a4e7fd4dca455693cf280d43174422c6cbe7
56531ec911476bf6840db939474ef50784f6859da7c2a95ec21e3cdc50b141c7b6b5d69864ddc384fde7a228a571a4e7fd4dca455693cf280d43174422c6cbe7
a8176cea169f1af74c1ca9550a7f69ae840fdea2216175b058dfa81fe72960a46a79e4bdeed1d4f0c109dc244fae4dad5d706f83b487063c1c531d1acbb0a7b2
d653309e7d9861bb47e3a0c59de2418b483c1e6472f19f0d21a29409f6533ed8d92c151141b42679da368d66032359c70f87ba6d1338007ab730aee6ebcc5925
9458e90c92a656fd8e9da15eeab8031cc20225f126e6de2dece39ec5d52d23535f6a09176b3aa07461904ac84d7ab26ea9ef1a07666c2bc365d9293e5c1bf906
6c9496049bab330638648879c4000240e1afd9dc79f85450019edc7a262cda2283851c1bc7952bef0d0a7f1441e62ed5cdca6a3172c02241fc4c6dcaee6692c8
371d01612319287d1a2d7966d7aef174aa981c0d1126339c5e73fcb4c3fa26e03f958c51a7b2fb72d4020059afd1e117b88f1944817e890da22b40a384436f3b
aa3f309786b8ed9f6e339e0d0ca3fdac3d3ca26f28e80676b5cf1453d7be77c572499bab213f8e35277ff977dd659bc48b9656da19bd9d263e4e9c3fc81093c7
21da31f1648512a28404de05b2f22fdaaf680fcb1a750e55eaeefd4d969fdb3eaf9a72b10db2d1e8b2266d5efbf82366a93f544976b0a489e8000833bec6be23
8ed119388f609ec17143803eccb2af26690edde1549310bad1449961e23605b76a79e4bdeed1d4f0c109dc244fae4dad77ceabd6a22911f15f8d4e44dc3e2c72
b5711b57cf359d0148c893d961e6dfb6483c1e6472f19f0d21a29409f6533ed8d92c151141b42679da368d66032359c70f87ba6d1338007ab730aee6ebcc5925
fae25d07ee43c303e1b19b5e156a98b26119933286fe3641ce4bdf666d73c37774f5ec2f3199319e1730500d318021e6bb30458def0c28876ac54bdf8cf46f58
62ae7a19505b80876c31ab250b9ca557e1afd9dc79f85450019edc7a262cda2283851c1bc7952bef0d0a7f1441e62ed5cdca6a3172c02241fc4c6dcaee6692c8
e541992c0489a712c8d65ac709acd3348d676760d36eff39a05315833c08436de8a195792e82bcf12d1badc770866ced8f3b77207460f83dfe72a2d8817d780f
c7a174bd436a5d81c53e06bf7dcde4d43d3ca26f28e80676b5cf1453d7be77c572499bab213f8e35277ff977dd659bc48b9656da19bd9d263e4e9c3fc81093c7
16fa3df636147bbe54d6c77840eb1becebfa246233d6814ace97ec9309de6ce1d8476612d059e0180caf17a2467ed99971e0e561e5ca10ffc70da8292b6c6d32
add01d1a080fe4b97f1bcfa2563512562fb6927b1f16dae86710968d6bd488822abfb7f4b7fd017b9abf476b602d9fc56d45e052f7784779a474ff71e47c7a71
3da5c686b0fedd6d9f2a61433126b21e83a0bc26b2a7783b8a01b552e6b77d826a79e4bdeed1d4f0c109dc244fae4dadb3f42356cac593884ff992cdf8d81e38
d39e155c3e32c6c0d03c33bf7ea1f9d14a816a1351c24da4eda66a6acfe1726ddc5d449e4d7706fbc341da7ca6038d466fcb31331f38c0c6281d65fa9ed386de
821e227f3f8b74303f4f2c70e0d937dbfcbac83c5adc063c71d2373a4f7c961e92464e39e17d677e41bb769aa35709dc5e37c4c0498027c73b9b940d834b8898
7db2cedd42dba03fcd3459b37c4ca137e1afd9dc79f85450019edc7a262cda2283851c1bc7952bef0d0a7f1441e62ed5cdca6a3172c02241fc4c6dcaee6692c8
8373c8f20120d40656a3ca0235748a5151148f0ead4638c00458deeb3f81ccb1100fa59d2facbc159ae3a61e24dd94a7426220d8067cd97ff68509bd6b183e72
a2b94996d62e6b112245418a3adc092a483c1e6472f19f0d21a29409f6533ed8d92c151141b42679da368d66032359c70f87ba6d1338007ab730aee6ebcc5925
8dc930b1b7829bbd7e7f9e41d85331b0df40415bee57ad1f0156ebb8ab2a3b3095ea29b866bbba4fdc88caed73c9d0fa71e0e561e5ca10ffc70da8292b6c6d32
ddfcab15b61f336ddf6a9ca51f1f9937e25d4902559722af60326ec27c643286b149ac24b7723048bc24dd94cf1c17470e2be4c72907c92da4859df41b2679c4
574b4cf55fde510b42cc052b1565fbf21800d91bc299de4f80a9a4bbfe9c121c19ce1c7424e84280552b9bbd99c6cf6fea7903c7ddf062b19ad3bf1108bff891
6951ac4be664622bf4a471f8156554c380470aaf3853d70413c1676e746258d17b328b4bbec8e219da4c8c9feab89ae7f11e870843759baf2c7fa1b8a996d80b
a692b320e57f56f5a60034073f57ef89cc3985b038c9256b4248cd302ae251db6c735995a7fbd595c3af8f39925caf531e787c83c0b254f15338c333f0378123
cc5202f79f65740c483d8a2e5c79b06293ad3d275c01256cb65613125edd8dd57e107120ea206a70baa33f89a6173ab58608d2860390e42bf414f4abc354fb0e
cdc88ec88e4c84b74e222c1e9ef4218b587df992945f2e2203e48a1cc4921a6101e72f9a3858e5bd43f0cd0b9cbc7ba5e3cb99c310ce573646bcf485a1fc3ae3
579c1e69ee6c81938a6c9854ea28aaab80470aaf3853d70413c1676e746258d17b328b4bbec8e219da4c8c9feab89ae7f11e870843759baf2c7fa1b8a996d80b
4274b9a58f02efa163f976c6ebbaaddd43b2de31ddd0a8b94e1017342b2d1fc41df432a894cbfe105efc7a2f1dd073d1424a65d39896998a9b80c066f159ee65
419c96b153cfdefdf4506b0dafbd19c0f017a1075f60c9d6393f4e64ee9d5b3d9e4ec3025b410b983823bc878afe0a790e2be4c72907c92da4859df41b2679c4
cdc88ec88e4c84b74e222c1e9ef4218b587df992945f2e2203e48a1cc4921a6101e72f9a3858e5bd43f0cd0b9cbc7ba5e3cb99c310ce573646bcf485a1fc3ae3
23a44f269c3b6f1dd444d70583f4da36941d70cbf27c25384e600149d9c5e593233bcdec181d0b34252b7d0d4a875e94103f61ce01763f0c24040ba8ad408128
9ec767129535a256a786226caca9fe2181ba5306692f23baa906c800d7d80f73233bcdec181d0b34252b7d0d4a875e94103f61ce01763f0c24040ba8ad408128
c3768a163aa410f2440315061cd059aec8f5449a72d62a78150366395f71da0368abf76b387d0268bf9546150a4c8642ce06f6af0c2ceddc2ac7ca4ddd682f01
114e48bb3faad436c0adc66ac672c942c8a97bd400883b69eb8eda09b9d69d2a233bcdec181d0b34252b7d0d4a875e94103f61ce01763f0c24040ba8ad408128
0e1a0626b5ca62a3af18d2db69e1909d02ff0af5757ddc3691dce0293374d54dcff16361c0fa2f15ea5ad8b8f2434009c4d9866b526f4bbcc8e73e8ced0181df
7dffd9c8442a91ee1645ee2e3d77547143b2de31ddd0a8b94e1017342b2d1fc4e117d4cc73563a020cd561efe9b6143e424a65d39896998a9b80c066f159ee65
f39e6d7d0eb2b7d9749dc5bc10e4278b47c300948ca6676559372d2c7aab9b4c3346431683fd65adace44eddcaaaaad1d72b4d34f30f48a29d1d3e38360fa23c