* CL05A475MP5NRN Multilayer Ceramic Capacitor Interactive Precise Model For PSPICE
*-----------------------------------------------------------------------------------------------
* Model Generated by Samsung Electro-Mechanics
* Samsung Spice Model Version 5.0
* Products : Multilayer Ceramic Capacitor(General)
*-----------------------------------------------------------------------------------------------
* Characteristics :
*
*     Nominal Capacitance = 4.7uF
*     Capacitance Tolerance = +/-20%
*     TCC = X5R(-55 ~ +85 degC.)
*     Rated Voltage = 10.0Vdc
*     Size = 0402(unit:inch), 1005(unit:mm)
*     Length = 1.00+/-0.15mm
*     Width = 0.50+/-0.15mm
*     Thickness = 0.50+/-0.15mm
*     Reliability level = Standard
*     Lineup = Lineup Normal
*     Feature = Features Normal
* Applicable condition :
*     Frequency : 100Hz ~ 6GHz
*     Measurement Temperature : X5R(-55 ~ +85 degC.)
*     DC bias Value = 0V ~ 10V
*     Small Signal as Network Analyzer
*-----------------------------------------------------------------------------------------------
* External Node Assignments :
*
*  1  o---||---o  2
*
*-----------------------------------------------------------------------------------------------
**$ENCRYPTED_LIB
**$INTERFACE
.SUBCKT CL05A475MP5NRN_Precise_Interactive Port1 Port2
$CDNENCSTART_ADV2
17f62b1fb318c25603aeb85644ae98a5d179ef807807791f6459efacb9d7ffc35a73a37243d4cce46a460e928d7c8f9c39ee99122a9d3f96f7d47fafa32ba578
f42281a1e01984ca61ee9568245776d80530244a17a14619c2ea4aed6910fcba59cee04865e9bc14f0b6ed9d7801ca6c8ca9beef3bc37bcf7fd48e9572a2e4d0
8cb556b44ea50a38523a44188e0f8c9e05702104f945ed8502f48afa06b76dfa4c703eea3e8f941ed14e0a4298539f99de0fe5dafd7787c989a502aa121af35b
04dc6d3675dbef4604e6e310b979a45c4d0c7651b26065d32da15da410df07eee4e9696758a9c32ddd1155b54840dc886adbb794f697fd0095ea7d07f9a3afd6
fa715e1740538b2e79352e79e713a9dc47322cdcc13cc620c41d3a57633fed60bd4799b3b166b32809991b5362bec9249975f264b3382fdea29bbbebd06b4bbe
8c4aaac2666b630043afa0cc19524af4704f9415e55f448b00353fb59bdb9b8086d60880846d77a6665c7fc29f51488b7d160ed9aacdd499620ae7dde86e1e84
1add674fb9c8fe72a4ec9f6df434359b6fc5c1a44f6d759fc83fb84445bb9808a41e6e2cfba13e74220e291674f5002a258309ba9ecafe132cdf86912e9b9f8d
c77bbc9a1608c6cd45b6c106c9a966c0c31e7609697efd066a02c8135e6df17d97fd7457024eef1bfb779abf1db708349aa0440fd7aef8863c8c776d1a17be1d
86bd874f58d635360bc9fde8100391f3abc12a91777cc2999a8f235598b615eb59cee04865e9bc14f0b6ed9d7801ca6c6c4851f5bb0bd11386a2fc0646d9e5b2
2aa9bd5a375995ce7fabe5c4e1ad038645e2b338484f43ec5fc79cafebab714b83240f7a9b0004dd5957cbfa5198234a3d305c19287bddc56931e92551cf973f
388477a6f11f689ed588132444025953cf14f7175ae7150041fbe7cc3fc0ca5528ba3bd624b2761ca2aebf7ad880fbfca5071225ee12b593bee92c42c45e83fc
b073cc62285126d2117f5f7b4127f4af01272f6e1a298ec4edd4fa9f98419d50fb0e79f4e5c363dbd10f847df1f6cd5fabfee2e16497bef0f3bbd79bc57bfe87
af503acda001468d5dcaa66bc9e71376b39ded73183804cf7ce2cf668f294fe3d0700ffbf510a73ce2657dacf52d27784089a51dddfc0d7eb3f066ea3de109d8
b403a7b9f4d42f7d5f6052daad922a53b54c028775ee49c80700887b902f81e960d6f1fe71e7ed0ae75bfd0580fb5ddeba33b9733fcd0ae033a9538d7c6d3b54
d1db26bc8ae274398c39999e50aea584d2a0c3c7427a19243f1275dda5c9b779fafdfb7a0324e692a7b7d73abc0753e77793b5ae638937d14ef379daa39de82f
200ed022c151f872c3927a0ddc33fa39517e580e79548316828559a6e27d144a1fb93cf922134a7887f1c0e74a9604d60a7f59b12fd0d35b765ad4967c516784
863e30b5d077e94bcdbf5ca735dee6caf6f5406fc74b7992464e6090f30ed7dc59cee04865e9bc14f0b6ed9d7801ca6c49ca0c04f978a7a7c30734b924bd8c7f
7b6ec67418d5c42233e8c656092ef88205702104f945ed8502f48afa06b76dfa4c703eea3e8f941ed14e0a4298539f99de0fe5dafd7787c989a502aa121af35b
363fa39e4de8fed79b8d5239423b773086675fc2f269e27e119fe0ee616e8d9825ad06955f06ca6da6868b97cfe80ddb8913f03aa22a2016516129a9a6b30ac8
13e955663367dd44aa035a8d2cecda400a0de9db5f988f218d7b6f8bbe073482662a8da39c9b80c16a282bf42319e4446a405b370d59f20978d7ad268a927470
c83e7de6e4e602a5e16e05a948a6743fbac5370182f53a2a7b86204259e5c269f8a5993eff1793ae88f1a4da5548062828fa63c4735eb15c218df7fc0079bb11
294723d922d62a39df75456351e535dd6fc5c1a44f6d759fc83fb84445bb9808a41e6e2cfba13e74220e291674f5002a258309ba9ecafe132cdf86912e9b9f8d
4689de15090d60601c3f6f49a6c6cfb84c47e977208b194a4ed4a42fb1c2ca0beffa8289bc06fb724877da573d736a7927dd36ebd4ede849bc53700ce9bc6599
32c35bf5014e8d856dbbbf527c0d38d7683ee210daab68482169e9016a6a70588ec5b2fb8aed02d11b40159277677ffc81852c8f36097684d3500ef85e9fa17e
b63388055a0ce2a653d752af969332a23f0f2a08d7f5c95929a56b5cae8883c89ebbe825f0e30e28da19eb755ef96775bb0aa32696b24640b0c3f465bf152550
b81f091aea2954a719545e77a168e08845e2b338484f43ec5fc79cafebab714b83240f7a9b0004dd5957cbfa5198234a3d305c19287bddc56931e92551cf973f
9436275f000b5b8c9bbc9a7e356f32d1243978b95cb978c5c42600b5405d6ebd6e2a0949ddb7275ccf60ac3e4dd77d6da16eabfde31e96179e4d77f4595985eb
f4173bd2bb09df0fab0fa55c89ce4bd3df19da036203dae54184958f115d33c041947e5851d3d51634d00f89a36f79c60246efe4fe9266a669907c770e7269ca
973ba4ccc2530f203eefe4e58b318f98ce47a93d87a566d29fab161ccb126dd078e26471f9a1470a4426e4a25a33ec66cbdf3f128247f653b43134dbeb80064a
b81f091aea2954a719545e77a168e08845e2b338484f43ec5fc79cafebab714b83240f7a9b0004dd5957cbfa5198234a3d305c19287bddc56931e92551cf973f
3ab1019e089e885e7907b6fea77bf941243978b95cb978c5c42600b5405d6ebd6e2a0949ddb7275ccf60ac3e4dd77d6da16eabfde31e96179e4d77f4595985eb
6e0d79d96d54093845de8e3a87b861b6a4b0ef7b53c708c5c93a12cecc633c8e419c96b153cfdefdf4506b0dafbd19c04505110f3bf9a2a630b5c2b9446a38b4
86be4f2bf93b143a68b0b296e54e09f14edc3b83455a374832b163c1fc9a2d0f47322cdcc13cc620c41d3a57633fed60a8487a69865de90c269fe0080676b594
b81f091aea2954a719545e77a168e08845e2b338484f43ec5fc79cafebab714b83240f7a9b0004dd5957cbfa5198234a3d305c19287bddc56931e92551cf973f
01e3786b871ba9e3269e3624fbbecd545d6702fee75aafddd0c655027a50fc01b35cb445e8d0be6976aa1661f30d3ba4c4a59ef6b9b877dce25fbc6741027dc3
4666aa858079ab80e559cad1c0372496e729d0f6b9a3d087d410bbfbaf52d6fcdefdbbc5c997791cf89798e1519095608144b488bd8d8b7b503385373697534b
4286f0e9e6bff4d4dacd5e300f2ca4f7e44efaa20efc0bd6beb7b68d5fecbab09cd221d7ec50355a9bdbf9a4a2ca5c1513693fc2b97292b0004c7ff352c8f9c1
113519776a59987af694af628617d9deda5857a6beabb43df84888c13792a0eadefdbbc5c997791cf89798e1519095608144b488bd8d8b7b503385373697534b
5e133fd5cd3e1be244a44d3440309c68532f43fc3382e5a83baf9e8993b70b6cff6a848a15ede0d183e6e6cde98b4e4d5f1190d961a31c18380fc3ce0dcd199b
13701b0719770874395bcb80871e89eaa4b0ef7b53c708c5c93a12cecc633c8ef39e6d7d0eb2b7d9749dc5bc10e4278b4505110f3bf9a2a630b5c2b9446a38b4
0ef3e77d06658dbd9c576cf8f4f498f0023d0202795b61d0fe98a61cd7a34689845555b7cfff921348fe9623f47626718144b488bd8d8b7b503385373697534b
b81f091aea2954a719545e77a168e08845e2b338484f43ec5fc79cafebab714b83240f7a9b0004dd5957cbfa5198234a3d305c19287bddc56931e92551cf973f
110e7437c591fff0a4d989832e25b528b406c997bfe534d41985576daad65cc0defdbbc5c997791cf89798e1519095608144b488bd8d8b7b503385373697534b
f72801e3c7db43ede577df5f939bd78c5ea02ff802ad45f0c050b6f0b00f297fdefdbbc5c997791cf89798e1519095608144b488bd8d8b7b503385373697534b
ca81feade30ebc93a9f3bcd7fd9bc17b7fd56cc2845a0148e51a993b31e1e566defdbbc5c997791cf89798e1519095608144b488bd8d8b7b503385373697534b
e8e7597fe5249a7ca05ac6982334acfbea950076c58d58ed8973e2ffce859e5ddefdbbc5c997791cf89798e1519095608144b488bd8d8b7b503385373697534b
9e85fe6c3c1e8e4126a1bece19c04aef09052dde095028e9ad215dbfb0b7abbedefdbbc5c997791cf89798e1519095608144b488bd8d8b7b503385373697534b
d8d7c77eda2aa5a97e49500fd792f4c86871de56cc7cb5cfe0521faf237e4aa0defdbbc5c997791cf89798e1519095608144b488bd8d8b7b503385373697534b
b69f898cb814d59183a1a5e225528244ac2a39311faf08bc08fbed15cc822ae5b35cb445e8d0be6976aa1661f30d3ba4c4a59ef6b9b877dce25fbc6741027dc3
f6020abc6c9322b84521c7ea74651afc0467189194ff989670169520d0a8d17ddcd23f38f50b2a8149ea2a735e98de6b3303ee8d231fdbcfd6a7c5a1407c56ba
837e9fc59d12675c2a39c2e1982c1ed7d664f78dcc5cc6f4b13aca4e36ac71b247322cdcc13cc620c41d3a57633fed60a8487a69865de90c269fe0080676b594
4770dafe6d85a90cb94c07494d5e99df0db0c5606117f56870a9806056682ebb3af2a7c1d9b44d96712f0339a66ddc79c22c77c9243c38989b7afb98fa6bb1c7
8758468462318bad25b62e1ecd13e42d9ce5051888dc9e648374ea68f7a444af6965f8fde8146cb4750082c35ab2b55856c56ad2f751994a71a403eb0e293ac5
b81f091aea2954a719545e77a168e08845e2b338484f43ec5fc79cafebab714b83240f7a9b0004dd5957cbfa5198234a3d305c19287bddc56931e92551cf973f
407404319c2205b345fb51e83ae83c513e4292db06c65bd52fe13992abe6f220282caa3d79f0a890c4b4f27b14acbb60f65fc56228a78de3a169d46e913b1c93
2aa9bd5a375995ce7fabe5c4e1ad038645e2b338484f43ec5fc79cafebab714b83240f7a9b0004dd5957cbfa5198234a3d305c19287bddc56931e92551cf973f
97fc739c2b2eb1e318b436d895af8a09d12bd1762614786d42232b245a477e91a26486c99c3a526773cf4c52ade87d1210692e2c8e4ea770361889cdbaacf006
59b794342e3f9d42ed38669f318aa77411026b7468a0a7be37883f168d2c3abab24e4645b37b01404b7ac3813aac704c45019c2bc5fb78c1c3d88fa6b2d045ad
3be50aa8bd43f554fcfbcd95d2431d91aa80397f1847e7a652285ee472a567874fa932e3d32a1ed412fb96a2e579378ade629eb4677ae860116f343dfce95fc4
bf0438cc5dc218d88f3ffe96f076472cf925d785c6f2b2e4d1405e16ca515945bc6d1ed5033adfe4868da05b34cebc31a89107d5f4aafb9b4d7535fa65476a21
f4ae576747e771c1f86d97a73d784bb1fb041ef0305a830c81ae25c13cfdfe6533a821b4c9382f21f19cb090b277eb9e198e9f5a0423ea24b51ae2eb4400c45b
4c934ab50ccde9021ff13ba77e2111f4caddd289b243d06c3d7071a503c1d8ee282caa3d79f0a890c4b4f27b14acbb60eaacdd47b3fa2fe68c6ec260592f4a5a
cb33f59556b101b9b9e472b6f059877f45e2b338484f43ec5fc79cafebab714b83240f7a9b0004dd5957cbfa5198234a3d305c19287bddc56931e92551cf973f
cd6f4c11e5905a609e0a19415ca83abdac08177e4267eb8c885b5e42557e181c8b6bc0bffe3ee3d27a412e3b6fd265498dcd1e51247f5d7bff04459fe8a312d7
ccbdb7402fae45e201cfb61c56c16ebf11026b7468a0a7be37883f168d2c3abab24e4645b37b01404b7ac3813aac704c45019c2bc5fb78c1c3d88fa6b2d045ad
73c5fe2975940b8b35191211ea468adebc1ab27934f270264428cec867c61dadd2f9db6f3b5a1e0b514b201bb4dc13064caaf0d29959d9dd73ed23e33982158d
e6d0e490d0a5d500dd6ef7e2838e012df925d785c6f2b2e4d1405e16ca515945bc6d1ed5033adfe4868da05b34cebc31a89107d5f4aafb9b4d7535fa65476a21
27205e538bbe0fe329e8b32f7c68fef063ba8d05812311c977df1fb8086f047c18d79ff4d907b3bdb52fc4c30b1b77d727dd36ebd4ede849bc53700ce9bc6599
c164efad3e353e9883257ed39eba25e218bb65d3bcb87ef30fb25fe4150b99b4defdbbc5c997791cf89798e1519095608144b488bd8d8b7b503385373697534b
613f82500756374813514ebb359b9b2356467ed112045e3965baf5e8b0f9ee0a8e9fe206098ca610a82ce42cc36279a68144b488bd8d8b7b503385373697534b
5c4c2aee47bb85ffa914d60ea4797a4179178aed800fef4053febbc2030d1ae884919827a7a55c402291687a538118cfa16eabfde31e96179e4d77f4595985eb
18ddb3b001b61a493154647425b86d39280d98d1f7e3e703ad0b63b15ecd1a466e2a0949ddb7275ccf60ac3e4dd77d6da16eabfde31e96179e4d77f4595985eb
7cde44140ea9a8ad908b212fe8824ae8c5a6daf7cb9989c120da48bec2d1c75a9a77c43676894f78dc33fccc5c29e352ff6402cc2b1e36f03eb7007f168d3438
8758468462318bad25b62e1ecd13e42dda7006b720b2c480774c579a19c960d747322cdcc13cc620c41d3a57633fed60a8487a69865de90c269fe0080676b594
b81f091aea2954a719545e77a168e08845e2b338484f43ec5fc79cafebab714b83240f7a9b0004dd5957cbfa5198234a3d305c19287bddc56931e92551cf973f
c264875952479367c09dc954a2db32c02e676fce9b46cee63983f476882fca2afeba4a0750f0364b2e5b88b353c347875f1190d961a31c18380fc3ce0dcd199b
86b0776e3159529a8d5ca6b2713c65f0b6bfccb0d9622cfbfa1a47cf46a9e2c4feba4a0750f0364b2e5b88b353c347875f1190d961a31c18380fc3ce0dcd199b
3987943fbe77160511cec572ea69cb8704d9577a8516e12c4f99c3ce63745c55feba4a0750f0364b2e5b88b353c347875f1190d961a31c18380fc3ce0dcd199b
1cd148cae0cc6c263a06a82b5a616d839a6e17f968ee6e0ccd721c0d98f3f3fccdd00ad148f83b2c8045853fab65d603ac16afc82c1c67c8fcc8a4e9b614b11d
3f1e6fba4a0d369f2d20db10ace6d978d7b9a93e87ceb4a54843f92594a340f6282caa3d79f0a890c4b4f27b14acbb604935be1632e91b0b5d031657bc378008
ed32527c2d62ad8b289f31e86618c1f6a9e38a5cc9caf7e45a4321b79d4409ef549c8d1780cb1425f93b9031de4941af00e8b2cacdd1aa1ebe272f98a6269dd7
6c5db84857ebe76517bdd3e9e51bf5e6852e0d6ca0288dd15bc990b981c3e3742be62490107afc50542cc14ed75db49936ed5bae6de42c7dff85cff8212ede19
7e823f2c6c316ceb75a72f4fde8cf1ba47322cdcc13cc620c41d3a57633fed60bd4799b3b166b32809991b5362bec9249975f264b3382fdea29bbbebd06b4bbe
74bcc57c50504bb410e94eb54a4e2cd93fe702174f7e6b9500a1b83efda3c858171cb1f938eb859046ecca6227539d1ecbe91af337f3369ba3e9600faa601ad5
1264ad2d856b92efdfe84c103a6262d73f0f2a08d7f5c95929a56b5cae8883c89ebbe825f0e30e28da19eb755ef96775bb0aa32696b24640b0c3f465bf152550
912292661004becc3908f58bffa83e1c1a5f3e6cf18b01f54749a1d417fe0fda54aa859646f76ac97201700fba783e3a1cdbf364bf644953ddbd218dbc717682
70f0059dfe7f74c8d54654985f5756f85e09fc7c3a8027e4b0498d6d6d734a5647322cdcc13cc620c41d3a57633fed60a8487a69865de90c269fe0080676b594
510fb077c36880288d370ffdc1e246dff54e46d4ae6d36d760def9b34b9aab41866ed50c60800f5c583060759074495aefba1fa454f47781ffa7d92ee3898729
717d3bdca20de83e401e082357e179566838452b7a6febc215ced5dd95de55d875eeb4e23d6fed0b8d60763933f777c69f0fed1544809cc78643b4fdd4bcde3c
b81f091aea2954a719545e77a168e08845e2b338484f43ec5fc79cafebab714b83240f7a9b0004dd5957cbfa5198234a3d305c19287bddc56931e92551cf973f
a765dc6b57c430c12d2ab8204b3fc7395e09fc7c3a8027e4b0498d6d6d734a5647322cdcc13cc620c41d3a57633fed60a8487a69865de90c269fe0080676b594
954560fe98b2ccf9d9f121ec50b92775792d95225d2537c9fa82c1cbc0b4609268d7a228a48d08accd0b9f1637abd2e3665d33566e49924ed6c86ee6ec6bd41b
8758468462318bad25b62e1ecd13e42d7d8c7ab5856cd95a24d8077fdaf7e5f76965f8fde8146cb4750082c35ab2b55856c56ad2f751994a71a403eb0e293ac5
b81f091aea2954a719545e77a168e08845e2b338484f43ec5fc79cafebab714b83240f7a9b0004dd5957cbfa5198234a3d305c19287bddc56931e92551cf973f
c61b593ec47f1631be75b0a57268eb9de10108eae84fdf657019190f87c23b32282caa3d79f0a890c4b4f27b14acbb602574c1657f8446ad0efd654271d63002
2aa9bd5a375995ce7fabe5c4e1ad038645e2b338484f43ec5fc79cafebab714b83240f7a9b0004dd5957cbfa5198234a3d305c19287bddc56931e92551cf973f
7da950b548675636145652569f2186cd55e7dc7af4f2ad49d6d846b2b15250ac2e6c4cc65ce3f893dad0f5c0feb9a5a0e275798c36504981bea4749a009711ae
7f4df4cfd8be0ba41b8a7f0654c76cb511026b7468a0a7be37883f168d2c3abab24e4645b37b01404b7ac3813aac704c45019c2bc5fb78c1c3d88fa6b2d045ad
b9ce0b0f14c1e9b09eef46fd4e2f455e063e20adbfa707432a6aa7c15e1ae950f2b50b8a4fbc83778a3a736252a64e5228f60f08050b52d7a773491768af9f77
2c3eeaa1abebca4d04452266995b88833f0f2a08d7f5c95929a56b5cae8883c89ebbe825f0e30e28da19eb755ef96775bb0aa32696b24640b0c3f465bf152550
442a74d78c5300a6f7c343e10c7205a3e42152e9660fe311f3b4dc498ef20edd15984084aaa3241adcb391ab39e4e6ffa719fb14dde7c0483c55f782cfe5605b
590df3561c4c93027da52a32dec6120d8e2ff75e56e4185ec8f4de51fd7e6264defdbbc5c997791cf89798e1519095608144b488bd8d8b7b503385373697534b
5380889b2fa2f0c2bfd3e1731ccfd8edeff99fb65ecad0ceb1b6e94695b6fc2f84919827a7a55c402291687a538118cfa16eabfde31e96179e4d77f4595985eb
31f2c8bf245b60b56c0248df4c62b1d05d828212cd144cde3d356158b933a2a0feba4a0750f0364b2e5b88b353c347875f1190d961a31c18380fc3ce0dcd199b
712c2d817fb61f68bb87e8525c1cff64d7ffaab9e63f74511dc4b247ed5329bffeba4a0750f0364b2e5b88b353c347875f1190d961a31c18380fc3ce0dcd199b
767a81a4eb7e96c210920a5559f7064adce8640398aec5d2fbee4a5af6cd8b47feba4a0750f0364b2e5b88b353c347875f1190d961a31c18380fc3ce0dcd199b
503431dba712c0dadb4d5ff1e64573e0939c351943798871de6e3bd2ad0dfa12feba4a0750f0364b2e5b88b353c347875f1190d961a31c18380fc3ce0dcd199b
75f5216d06ef3386128836a2dbad79790467189194ff989670169520d0a8d17d6ce7c922259e84d897dd9997d782c03ad5fe509cffaf3df56a7b126e36fe1ab7
66088ccd334b5c2b08f610b11af1f101bbea993b6cbf005ed6164e6286e14f5e47322cdcc13cc620c41d3a57633fed60a8487a69865de90c269fe0080676b594
091b90440748242a27790dc5275923c1a0121d85696ce53100b9b4c51c71ebbe3af2a7c1d9b44d96712f0339a66ddc791a4629e1dd7f0256b604daf9ca9424fb
8758468462318bad25b62e1ecd13e42d14c28237f5eceec8eb7dd319877afe9e6965f8fde8146cb4750082c35ab2b55856c56ad2f751994a71a403eb0e293ac5
b81f091aea2954a719545e77a168e08845e2b338484f43ec5fc79cafebab714b83240f7a9b0004dd5957cbfa5198234a3d305c19287bddc56931e92551cf973f
1c635d6fbc47008f3e616e608e9a60053e4292db06c65bd52fe13992abe6f220282caa3d79f0a890c4b4f27b14acbb6000a4f3188d88f09318b82e5eb524999b
2aa9bd5a375995ce7fabe5c4e1ad038645e2b338484f43ec5fc79cafebab714b83240f7a9b0004dd5957cbfa5198234a3d305c19287bddc56931e92551cf973f
329893f2f9dad94cbf8c5bf462a78c6109dbc333507b46b27ac856f2705cf4178ebe92eb4184870cf8a08e89b1bad21f8669ac97bb563103ee24ccbda41c44e6
4be89adb9885ca818ca0500ad147a3d1afcf87039acbd4edd93bb221894978e05a035d6ab7a749c652b3677b74a1e72974a5f3a775a0204d4c97dc2d3245cd62
329893f2f9dad94cbf8c5bf462a78c6109dbc333507b46b27ac856f2705cf4178ebe92eb4184870cf8a08e89b1bad21f8669ac97bb563103ee24ccbda41c44e6
ed32527c2d62ad8b289f31e86618c1f6a9e38a5cc9caf7e45a4321b79d4409ef549c8d1780cb1425f93b9031de4941af00e8b2cacdd1aa1ebe272f98a6269dd7
329893f2f9dad94cbf8c5bf462a78c6109dbc333507b46b27ac856f2705cf417816c6bb0af64e79080aca4f895460a7765fbd9bbe54b3708ba6208d7ea0e751f
0ed63cdd3ad7d1548fb3d34374e9454fcaddd289b243d06c3d7071a503c1d8ee282caa3d79f0a890c4b4f27b14acbb605c6e36cfaa1d01524f64bf1570e43f28
cb33f59556b101b9b9e472b6f059877f45e2b338484f43ec5fc79cafebab714b83240f7a9b0004dd5957cbfa5198234a3d305c19287bddc56931e92551cf973f
329893f2f9dad94cbf8c5bf462a78c6109dbc333507b46b27ac856f2705cf4178ebe92eb4184870cf8a08e89b1bad21f8669ac97bb563103ee24ccbda41c44e6
4be89adb9885ca818ca0500ad147a3d1afcf87039acbd4edd93bb221894978e05a035d6ab7a749c652b3677b74a1e72974a5f3a775a0204d4c97dc2d3245cd62
329893f2f9dad94cbf8c5bf462a78c6109dbc333507b46b27ac856f2705cf4178ebe92eb4184870cf8a08e89b1bad21f8669ac97bb563103ee24ccbda41c44e6
ed32527c2d62ad8b289f31e86618c1f6a9e38a5cc9caf7e45a4321b79d4409ef549c8d1780cb1425f93b9031de4941af00e8b2cacdd1aa1ebe272f98a6269dd7
329893f2f9dad94cbf8c5bf462a78c6109dbc333507b46b27ac856f2705cf417816c6bb0af64e79080aca4f895460a7765fbd9bbe54b3708ba6208d7ea0e751f
2ca728937d85c52404c68a4d270e723a95b4b4db0d201ed503faec4524cc08cadefdbbc5c997791cf89798e1519095608144b488bd8d8b7b503385373697534b
4ea1da0bb7409dddaa08a03fd4d0fffcdcbaea8592eba80f15539e202b858ddc8e9fe206098ca610a82ce42cc36279a68144b488bd8d8b7b503385373697534b
9e9f83a1c4a155b5a4cda59eb73eb2bf79178aed800fef4053febbc2030d1ae884919827a7a55c402291687a538118cfa16eabfde31e96179e4d77f4595985eb
3205f5b1a35ad9b71fde283399035809c053349a231d0e3a810325a74d1e4b2d6e2a0949ddb7275ccf60ac3e4dd77d6da16eabfde31e96179e4d77f4595985eb
a39c7d60a147f7fdbb7768155adf907c815c3db210c992b24bf1fbced4b851f69a77c43676894f78dc33fccc5c29e352dad89db0d69ba90732a360d57aea3f2a
8758468462318bad25b62e1ecd13e42d7b40591f8402cf6b7731665898500f6547322cdcc13cc620c41d3a57633fed60a8487a69865de90c269fe0080676b594
b81f091aea2954a719545e77a168e08845e2b338484f43ec5fc79cafebab714b83240f7a9b0004dd5957cbfa5198234a3d305c19287bddc56931e92551cf973f
4e8d828b69f152a4f890e6c2d32debc62e676fce9b46cee63983f476882fca2afeba4a0750f0364b2e5b88b353c347875f1190d961a31c18380fc3ce0dcd199b
ceb818c201628c093c2108a663c31dd7b6bfccb0d9622cfbfa1a47cf46a9e2c4feba4a0750f0364b2e5b88b353c347875f1190d961a31c18380fc3ce0dcd199b
99f18a4b181a72f22880a7a2306e394b04d9577a8516e12c4f99c3ce63745c55feba4a0750f0364b2e5b88b353c347875f1190d961a31c18380fc3ce0dcd199b
7ee4ce050df77826b58afe1d495ecdce0467189194ff989670169520d0a8d17da7d8de97e74012590cab315981be02b8edb46ab4bdfd1e6f4f7174146e3fff16
40dff9c3aad74b919a2ff152361d1de1f85b332a8cca644fed45c2166605cc0847322cdcc13cc620c41d3a57633fed60a8487a69865de90c269fe0080676b594
46b22bbfefb41c2d39eda7875ebf6f5a78a1a6f4329fe563178844dc9519e05b3af2a7c1d9b44d96712f0339a66ddc79a61e730f6c5d3db6b802e319c6f7d07d
8758468462318bad25b62e1ecd13e42dbe8902e1204308431fffb52609feaaa76965f8fde8146cb4750082c35ab2b55856c56ad2f751994a71a403eb0e293ac5
b81f091aea2954a719545e77a168e08845e2b338484f43ec5fc79cafebab714b83240f7a9b0004dd5957cbfa5198234a3d305c19287bddc56931e92551cf973f
80da9e7df6737d090acbbeabc72425b03e4292db06c65bd52fe13992abe6f220282caa3d79f0a890c4b4f27b14acbb6000a4f3188d88f09318b82e5eb524999b
2aa9bd5a375995ce7fabe5c4e1ad038645e2b338484f43ec5fc79cafebab714b83240f7a9b0004dd5957cbfa5198234a3d305c19287bddc56931e92551cf973f
329893f2f9dad94cbf8c5bf462a78c6109dbc333507b46b27ac856f2705cf4178ebe92eb4184870cf8a08e89b1bad21f8669ac97bb563103ee24ccbda41c44e6
4be89adb9885ca818ca0500ad147a3d1afcf87039acbd4edd93bb221894978e05a035d6ab7a749c652b3677b74a1e72974a5f3a775a0204d4c97dc2d3245cd62
329893f2f9dad94cbf8c5bf462a78c6109dbc333507b46b27ac856f2705cf4178ebe92eb4184870cf8a08e89b1bad21f8669ac97bb563103ee24ccbda41c44e6
ed32527c2d62ad8b289f31e86618c1f6a9e38a5cc9caf7e45a4321b79d4409ef549c8d1780cb1425f93b9031de4941af00e8b2cacdd1aa1ebe272f98a6269dd7
329893f2f9dad94cbf8c5bf462a78c6109dbc333507b46b27ac856f2705cf417816c6bb0af64e79080aca4f895460a7765fbd9bbe54b3708ba6208d7ea0e751f
f13a46832d066f1c40c169ed70d6fa67caddd289b243d06c3d7071a503c1d8ee282caa3d79f0a890c4b4f27b14acbb605c6e36cfaa1d01524f64bf1570e43f28
cb33f59556b101b9b9e472b6f059877f45e2b338484f43ec5fc79cafebab714b83240f7a9b0004dd5957cbfa5198234a3d305c19287bddc56931e92551cf973f
329893f2f9dad94cbf8c5bf462a78c6109dbc333507b46b27ac856f2705cf4178ebe92eb4184870cf8a08e89b1bad21f8669ac97bb563103ee24ccbda41c44e6
4be89adb9885ca818ca0500ad147a3d1afcf87039acbd4edd93bb221894978e05a035d6ab7a749c652b3677b74a1e72974a5f3a775a0204d4c97dc2d3245cd62
329893f2f9dad94cbf8c5bf462a78c6109dbc333507b46b27ac856f2705cf4178ebe92eb4184870cf8a08e89b1bad21f8669ac97bb563103ee24ccbda41c44e6
ed32527c2d62ad8b289f31e86618c1f6a9e38a5cc9caf7e45a4321b79d4409ef549c8d1780cb1425f93b9031de4941af00e8b2cacdd1aa1ebe272f98a6269dd7
329893f2f9dad94cbf8c5bf462a78c6109dbc333507b46b27ac856f2705cf417816c6bb0af64e79080aca4f895460a7765fbd9bbe54b3708ba6208d7ea0e751f
bd6bc30f05f24e282b29ba89dd8d998d53262f60f097dbea7f3336e79b5eb8d0defdbbc5c997791cf89798e1519095608144b488bd8d8b7b503385373697534b
c9c7014897cc2b41bbae384ba28d9c674b22f0acc5fb91016413bdb3014d22068e9fe206098ca610a82ce42cc36279a68144b488bd8d8b7b503385373697534b
45b01bfc13be4079d8f526e94a88f7db79178aed800fef4053febbc2030d1ae884919827a7a55c402291687a538118cfa16eabfde31e96179e4d77f4595985eb
597a0256d5788261f230d472ee42aec2fcfb4426355da166c9b5c743c57822c96e2a0949ddb7275ccf60ac3e4dd77d6da16eabfde31e96179e4d77f4595985eb
e95ed95ef11f9555ff78aca7ff0de5fb45683fe53110be811f5761c27d67c6689a77c43676894f78dc33fccc5c29e352f299624bff515253451d68d4bd54a3fa
8758468462318bad25b62e1ecd13e42dd60bcca441d6b552eb7e3d53b96ae2b047322cdcc13cc620c41d3a57633fed60a8487a69865de90c269fe0080676b594
b81f091aea2954a719545e77a168e08845e2b338484f43ec5fc79cafebab714b83240f7a9b0004dd5957cbfa5198234a3d305c19287bddc56931e92551cf973f
4b0f75a29ba6f4063c49d3f5b2f3333a2e676fce9b46cee63983f476882fca2afeba4a0750f0364b2e5b88b353c347875f1190d961a31c18380fc3ce0dcd199b
a8750e016a115a5ca52468bacedb2990b6bfccb0d9622cfbfa1a47cf46a9e2c4feba4a0750f0364b2e5b88b353c347875f1190d961a31c18380fc3ce0dcd199b
c80e1a9e7d8219f74dadec45fcb835d604d9577a8516e12c4f99c3ce63745c55feba4a0750f0364b2e5b88b353c347875f1190d961a31c18380fc3ce0dcd199b
e675f0298afa729bab4ecf8305913f314641c3438416463f6c828e966277b5b67c3f3eb4fd1a3395a65f5a663a3d5bf0ddb38827f5d8fe4fa86679b85df12f09
b1d3916fd035aaff385886bcde54a960229c726f70702e386a341be66c7121e2ec564b012f418e93359da2347cffd8da308d2fe9fb34fdd0a8e2b784110e4f4e
e4571f9a7fdce3b5d8910dc2797aa19811026b7468a0a7be37883f168d2c3abab24e4645b37b01404b7ac3813aac704c45019c2bc5fb78c1c3d88fa6b2d045ad
b09d0ae4f2afc5bf384eda1d18ce118d6891f3701d87c1841322a548d7655bbeea0b863bd473ea84de382d0fff9e1cab78507562f36c5840557b24999f0eca59
4873a199f5146aacda55e2e7609e14d1f925d785c6f2b2e4d1405e16ca515945bc6d1ed5033adfe4868da05b34cebc31a89107d5f4aafb9b4d7535fa65476a21
7f1c1da2f8699259863dc073a3828db0c9a612f66b557cbae737bb39f33ecb377273b2ece2d1e6afa2195fd6f47d85095ee351d22eff685d1ca2eaa2604f4423
31151bb1a12f4d7842be6ada0e0d4e3f81f7dbb203dbe399fa7b81f674e5059b642460820b689c7fc64d73d8429864201937055adf2cdeafe707c292cbf5bc7d
05bfc5cd66a9007b2c3c41b8fa14d8d1e3ac5a08c7ac47be924375adc89b377a7882145c0fd1942d900b18b8043186645f1190d961a31c18380fc3ce0dcd199b
1d1d78d5a57f6c1da8dfcf47699348ea6b92c64866e6f8d4d527e6d1e6478fde11026b7468a0a7be37883f168d2c3abab526a5168afb962164ffa211a4432a2d
8c7ba2cf1a6f7c875610b72ca6519d9562dfaedafce7375ab8fafb406d13194011026b7468a0a7be37883f168d2c3abab526a5168afb962164ffa211a4432a2d
fe45b15eb93c07d8ab5480117059e334858d57fd29573c066e96555ec2e631c909b838486b3af7bab33a0a57107b1684314b55a658b54fc85e1710acea0855ea
7ff1225a2605c237cde6629d74cd8bd0b3a3b2c33edf7176aba60db866c9badd6965f8fde8146cb4750082c35ab2b55856c56ad2f751994a71a403eb0e293ac5
b81f091aea2954a719545e77a168e08845e2b338484f43ec5fc79cafebab714b83240f7a9b0004dd5957cbfa5198234a3d305c19287bddc56931e92551cf973f
31789c5ecf822b1c0f10b940a6cc87bfd4759b057dd001b57b5654af501d2b5e7a18f79b559fc82281fab0f551e05cef9f0fed1544809cc78643b4fdd4bcde3c
55c0f0627f1c4edace534a391dcaf19a3f372a2f3b6c3d6dbed1e41c76abcd3c47322cdcc13cc620c41d3a57633fed60a8487a69865de90c269fe0080676b594
56531ec911476bf6840db939474ef50784f6859da7c2a95ec21e3cdc50b141c747322cdcc13cc620c41d3a57633fed60a8487a69865de90c269fe0080676b594
a8176cea169f1af74c1ca9550a7f69ae840fdea2216175b058dfa81fe72960a46a79e4bdeed1d4f0c109dc244fae4dad939655659d31bd5a9e1148c9e5d7147a
2d6280118f88a853e151d9d11fa62f176fc5c1a44f6d759fc83fb84445bb9808a41e6e2cfba13e74220e291674f5002a258309ba9ecafe132cdf86912e9b9f8d
f48795319a78529c89a7ae47a7c19285b2507779561ffe30d2538681e0aa1fa9d112e2c63496711af857683be98ca0aceb93639dc4cbb36c0a44fb023949edaa
192aa39f3566bcc33ea0270bb57f428447322cdcc13cc620c41d3a57633fed60bd4799b3b166b32809991b5362bec9249975f264b3382fdea29bbbebd06b4bbe
fc008a665bdad6a2e81f7eb9ce03e8d84ff18ca3e26888c15d3314b8e08acf2d84400b28cb8d4f4baa228afdd76eb0e0aeda3496630be355a236af8096843229
3533969dd2e57f9680ee7e59f2a74146f925d785c6f2b2e4d1405e16ca515945bc6d1ed5033adfe4868da05b34cebc31a89107d5f4aafb9b4d7535fa65476a21
6cf2b17ef9a3aa241c1c2df4c582a8a3016cc79768ab20d3c540b3d546da58f492e111de10f6671814e74dfb5d377af3a16b3cfe039dde3d76b1b54a4f7bb0c7
8ed119388f609ec17143803eccb2af26690edde1549310bad1449961e23605b76a79e4bdeed1d4f0c109dc244fae4dad3dbaf4a2826d2d2d45ab4532c017b271
f13fc7b28fb6435d4ccdf5e37825b54b6fc5c1a44f6d759fc83fb84445bb9808a41e6e2cfba13e74220e291674f5002a258309ba9ecafe132cdf86912e9b9f8d
64b568c57cd48f799d551ecb00a5af428942aad553925174e5ef4412a56b777018b617c294f97067c0534cc65f4d17794b3698f91327d22bc66d8ab5b4181016
fb29126eacb58b6d050ff292a704250a92dd031a9569834c6211fe089e171923662a8da39c9b80c16a282bf42319e4446a405b370d59f20978d7ad268a927470
c246867c30df69b55952fb855b79bf37e07f5b794cef84b4b7a15e6b44f77ff238ed07f6bd5996cf6dae1f972fb2a827d14274c0e57580fd31f6d2b44800e154
bf4f7fd6cf68fab01b7ee91a48797deff925d785c6f2b2e4d1405e16ca515945bc6d1ed5033adfe4868da05b34cebc31a89107d5f4aafb9b4d7535fa65476a21
3c09382551e3bf2af44bda1a2ceabf80c76823336779534651c1de386567670a187b72c67f7ff0ebfceb2e1aaebccc5527dd36ebd4ede849bc53700ce9bc6599
add01d1a080fe4b97f1bcfa2563512562fb6927b1f16dae86710968d6bd488822abfb7f4b7fd017b9abf476b602d9fc56d45e052f7784779a474ff71e47c7a71
3da5c686b0fedd6d9f2a61433126b21e83a0bc26b2a7783b8a01b552e6b77d826a79e4bdeed1d4f0c109dc244fae4dadb3f42356cac593884ff992cdf8d81e38
4e037fe16a1cd35d6180be021c537353f925d785c6f2b2e4d1405e16ca515945bc6d1ed5033adfe4868da05b34cebc31a89107d5f4aafb9b4d7535fa65476a21
36fd33605b1a48ae7d42c673c132a2ce26eb78414574b47b61b079f8ac1d2f10bbc3cc409a88aee4a79d799c2f660992671f277ef79e051134eae363e695c1a4
7a39d8e3d0ea6643a6b205b94a41de1111026b7468a0a7be37883f168d2c3abab24e4645b37b01404b7ac3813aac704c45019c2bc5fb78c1c3d88fa6b2d045ad
50e1a27155a9b25a72e5f9f7a40a7608ceefdbec4ddb2b3ef81fcafabcf6481f087d28f20a24f72b4f86157b7056412c636285614647477a711987e5dc2f2375
3c83885421200f8b1f967f92f84b16ca3f0f2a08d7f5c95929a56b5cae8883c89ebbe825f0e30e28da19eb755ef96775bb0aa32696b24640b0c3f465bf152550
05b67e535359155ca9e7fa7f952290facabfa0ace6751db7ed0089c2921246f2695d0d51e2c80956a7baaa15b422893bfdbf4c6e98e2d72874c394f3d283c735
ddfcab15b61f336ddf6a9ca51f1f9937e25d4902559722af60326ec27c643286859d8e13020a68a7c9fd15eee73a09c58144b488bd8d8b7b503385373697534b
574b4cf55fde510b42cc052b1565fbf21800d91bc299de4f80a9a4bbfe9c121c0a13d22c3c7c8a9e0ac71bd40cdee6616d55c7507520fcdee09de2352c495615
6951ac4be664622bf4a471f8156554c380470aaf3853d70413c1676e746258d1ff6a848a15ede0d183e6e6cde98b4e4d5f1190d961a31c18380fc3ce0dcd199b
a692b320e57f56f5a60034073f57ef89cc3985b038c9256b4248cd302ae251db6c735995a7fbd595c3af8f39925caf531e787c83c0b254f15338c333f0378123
cc5202f79f65740c483d8a2e5c79b06293ad3d275c01256cb65613125edd8dd57e107120ea206a70baa33f89a6173ab5ed997ab3794bcc3686deaf9647604120
b81f091aea2954a719545e77a168e08845e2b338484f43ec5fc79cafebab714b83240f7a9b0004dd5957cbfa5198234a3d305c19287bddc56931e92551cf973f
579c1e69ee6c81938a6c9854ea28aaab80470aaf3853d70413c1676e746258d1ff6a848a15ede0d183e6e6cde98b4e4d5f1190d961a31c18380fc3ce0dcd199b
4274b9a58f02efa163f976c6ebbaaddd43b2de31ddd0a8b94e1017342b2d1fc41df432a894cbfe105efc7a2f1dd073d1424a65d39896998a9b80c066f159ee65
419c96b153cfdefdf4506b0dafbd19c0f017a1075f60c9d6393f4e64ee9d5b3dcab801d1e2071ca84523af211370ebf28144b488bd8d8b7b503385373697534b
b81f091aea2954a719545e77a168e08845e2b338484f43ec5fc79cafebab714b83240f7a9b0004dd5957cbfa5198234a3d305c19287bddc56931e92551cf973f
23a44f269c3b6f1dd444d70583f4da36941d70cbf27c25384e600149d9c5e593a3cc128ab50cedf3ce71a2028f6e396b551aa80b0679d72cffe14d6716ab8b76
9ec767129535a256a786226caca9fe2181ba5306692f23baa906c800d7d80f73a3cc128ab50cedf3ce71a2028f6e396b551aa80b0679d72cffe14d6716ab8b76
c3768a163aa410f2440315061cd059aec8f5449a72d62a78150366395f71da0368abf76b387d0268bf9546150a4c864291ea1145e4f9cfac3ce1ef6f924a9d04
114e48bb3faad436c0adc66ac672c942c8a97bd400883b69eb8eda09b9d69d2aa3cc128ab50cedf3ce71a2028f6e396b551aa80b0679d72cffe14d6716ab8b76
0e1a0626b5ca62a3af18d2db69e1909d02ff0af5757ddc3691dce0293374d54d36d437fd099340155b4f6ab1faa530c99f0fed1544809cc78643b4fdd4bcde3c
7dffd9c8442a91ee1645ee2e3d77547143b2de31ddd0a8b94e1017342b2d1fc4e117d4cc73563a020cd561efe9b6143e424a65d39896998a9b80c066f159ee65
f39e6d7d0eb2b7d9749dc5bc10e4278b47c300948ca6676559372d2c7aab9b4cb29822c81fffdf4bb292b6c5890f9ba2cbdf3f128247f653b43134dbeb80064a