* CL21A106KOQNNN Multilayer Ceramic Capacitor Interactive Precise Model For PSPICE
*-----------------------------------------------------------------------------------------------
* Model Generated by Samsung Electro-Mechanics
* Samsung Spice Model Version 5.0
* Products : Multilayer Ceramic Capacitor(General)
*-----------------------------------------------------------------------------------------------
* Characteristics :
*
*     Nominal Capacitance = 10.0uF
*     Capacitance Tolerance = +/-10 %
*     TCC = X5R(-55 ~ +85 degC.)
*     Rated Voltage = 16.0Vdc
*     Size = 0805(unit:inch), 2012(unit:mm)
*     Length = 2.00 +/- 0.15 mm
*     Width = 1.25 +/- 0.15 mm
*     Thickness = 1.25 +/- 0.15 mm
*     Reliability level = Standard
*     Lineup = Normal
*     Feature = Normal
* Applicable condition :
*     Frequency : 100Hz ~ 6GHz
*     Measurement Temperature : X5R(-55 ~ +85 degC.)
*     DC bias Value = 0V ~ 16V
*     Small Signal as Network Analyzer
*-----------------------------------------------------------------------------------------------
* External Node Assignments :
*
*  1  o---||---o  2
*
*-----------------------------------------------------------------------------------------------
**$ENCRYPTED_LIB
**$INTERFACE
.SUBCKT CL21A106KOQNNN_Precise_Interactive Port1 Port2
$CDNENCSTART_ADV2
17f62b1fb318c25603aeb85644ae98a5d179ef807807791f6459efacb9d7ffc35a73a37243d4cce46a460e928d7c8f9c39ee99122a9d3f96f7d47fafa32ba578
f42281a1e01984ca61ee9568245776d80530244a17a14619c2ea4aed6910fcba59cee04865e9bc14f0b6ed9d7801ca6ce0ecdc4d6503722aad266e58bf9cb2a8
d85554276dd883d2a24f14411f9a37bb265ce57846742f6cd56b0ca1b01bd34340032160231488e831af3621ff25afa9e3d43cb80323a97653804fc787d5773b
ed6936660073575e727b384303abcf91eebbcce706586a1b06cfcb50d2676b1b3a80af6b2257c39ee1eb6df326f2cb4f4a4a9ab162b8e141090751ad49fdaa0f
25e6c0f261ff0cb448c76e3251875cbba30bd301fc3578b8f11c4b60a6efcb9a9825633e12f00d7901aefc09b798877c6e6fc0657cb133348dc3d7e7cc226481
a2af6e939ee415c318a25016737e500fa8c0b5028d94a9c7a7497809a9ceb5ba38dafaa44a1a6511deb80317dc5f755f7249c635d6edddbaa1a003d9fbee0173
bd7fd253948ca16e294dc72938e6a20a515ca33166f26e5cd4578441ffbf3cc3760dfcc69d260db0fbfd5cb84efbe66e0729460c3a368e06f475e034401b83d2
307e84fee5151067ce94968332a21ac4f17b1cb62bf0400b0b7a5c04a7a7c492ea53c2a27f73bb25fe6e4dbaa6c0b8f2f3489146a062fd43d2ddfdf9821a375e
86bd874f58d635360bc9fde8100391f3abc12a91777cc2999a8f235598b615eb59cee04865e9bc14f0b6ed9d7801ca6c35edc1600c4dfb3de31606e4ae7c1f7b
81f216bfa0fa05683541f95cc98a0259413823518f4e54d33ab74f808b0c16beb90d76ec9a50855d77f8714d1e6a0cd3cadca3424be0002448e7e51ac90df5f1
0c19014974c86244d9cbebe69f928f0fd57e66a1a8e44d7fd5d6b37dad04600d728785175eca5b582fda5926d68a6e24d1a12933eab851c3e7d13e9022e34191
ac0be8aa20067744fe13c210b39337a1e21e844a9bbf75da86bf3536db7aebcbd7985cba6391f0c53aefb385167b94fb61b3ef72cd432e97b143b55d9f407396
3429a60624ef4f794ddf685a5c06fb1558627145d23180ea5d8ca4d2382860a84d6788f2830eb1a8dc70e1171574cf6f04841291cedf671c9311abd821345302
99087a68e1d945de043a4d419bc3d65e96aec32851458ed5490fe56ff29b36d95b938eb27e4574acec3338156b8dd956dba5ac11d47e5fde91c04273a895a3bf
c7a3ceaf82d490e1420fbb128e28faf2f253468bcd7e1359ffced2782cacb26c4e5500e7b1586fd031879691768f5c94b864984f69833cb1d6361bd6fe0f3421
200ed022c151f872c3927a0ddc33fa39517e580e79548316828559a6e27d144a1fb93cf922134a7887f1c0e74a9604d60a7f59b12fd0d35b765ad4967c516784
863e30b5d077e94bcdbf5ca735dee6caf6f5406fc74b7992464e6090f30ed7dc59cee04865e9bc14f0b6ed9d7801ca6c5c38097e58a09b0ec777f09195b09f82
75b002bf56cbb20f5757cd00f1a75faa265ce57846742f6cd56b0ca1b01bd34340032160231488e831af3621ff25afa9e3d43cb80323a97653804fc787d5773b
7b63909978bd503e4d3f1fe96fa19b2e1d42cdf8333880c8b8ca0ab7988c282ff43e4120dfcf9d94273e248743ba9d083cbacf603f94d2e1578579b269600468
aca224dbcb52c0a43baa0b1212c6d78ae21e844a9bbf75da86bf3536db7aebcbd7985cba6391f0c53aefb385167b94fb61b3ef72cd432e97b143b55d9f407396
b91ef1f1f4c8c31a53f7888967512adef0d922d8b4f925c19fb6fc0f2559d6d7671f8defbe54c342447d83cb9e0a55440b66a7664266d55bb3ad560746a449e5
18266a5dd0efa827e51d8960122da06d96aec32851458ed5490fe56ff29b36d95b938eb27e4574acec3338156b8dd956dba5ac11d47e5fde91c04273a895a3bf
82306eaa74caf67076ee6e4599d4ea51d53edb9326dccd9069db37074f2e8e17167758ed9a02a95f4eed38ec8115e729e1ae463dccf921242f243d592cd4f11d
32c35bf5014e8d856dbbbf527c0d38d7683ee210daab68482169e9016a6a70588ec5b2fb8aed02d11b40159277677ffc81852c8f36097684d3500ef85e9fa17e
ede1fd742d099340826916f67d4c6eaa00d07acb2d964cc64e0944f7545b3fe682b873ad566fb2c783d032117f3525f24adfa583595f2d3ff8e0a301b4c4d5d1
2a8b1f0f0c8266adfc0fb0dd58566872413823518f4e54d33ab74f808b0c16beb90d76ec9a50855d77f8714d1e6a0cd3cadca3424be0002448e7e51ac90df5f1
9436275f000b5b8c9bbc9a7e356f32d1243978b95cb978c5c42600b5405d6ebd7fed0615efccd8f5cf5c14a4a11af7f59347643c0ad9174d512e6372a3816d88
f4173bd2bb09df0fab0fa55c89ce4bd3df19da036203dae54184958f115d33c041947e5851d3d51634d00f89a36f79c60246efe4fe9266a669907c770e7269ca
973ba4ccc2530f203eefe4e58b318f98ce47a93d87a566d29fab161ccb126dd0017e6c7452c5888cc1d02533d37ef791c7880407ce96725d57f2c28e3697378d
2a8b1f0f0c8266adfc0fb0dd58566872413823518f4e54d33ab74f808b0c16beb90d76ec9a50855d77f8714d1e6a0cd3cadca3424be0002448e7e51ac90df5f1
3ab1019e089e885e7907b6fea77bf941243978b95cb978c5c42600b5405d6ebd7fed0615efccd8f5cf5c14a4a11af7f59347643c0ad9174d512e6372a3816d88
6e0d79d96d54093845de8e3a87b861b6a4b0ef7b53c708c5c93a12cecc633c8e419c96b153cfdefdf4506b0dafbd19c04505110f3bf9a2a630b5c2b9446a38b4
86be4f2bf93b143a68b0b296e54e09f14edc3b83455a374832b163c1fc9a2d0fa30bd301fc3578b8f11c4b60a6efcb9a27cc8ad299c5706cda6f568484d642d4
2a8b1f0f0c8266adfc0fb0dd58566872413823518f4e54d33ab74f808b0c16beb90d76ec9a50855d77f8714d1e6a0cd3cadca3424be0002448e7e51ac90df5f1
01e3786b871ba9e3269e3624fbbecd545d6702fee75aafddd0c655027a50fc018a3e8f3309087adc55a31487df5e80685142cc0309891e322161c3e3b449c576
4666aa858079ab80e559cad1c0372496e729d0f6b9a3d087d410bbfbaf52d6fc4a0383412b27c8476421233815c2ed2716c4598a146ef55bcd522440b36dc7a3
4286f0e9e6bff4d4dacd5e300f2ca4f7e44efaa20efc0bd6beb7b68d5fecbab09cd221d7ec50355a9bdbf9a4a2ca5c15030f0e39224dbc7535986d29bf1c08a1
113519776a59987af694af628617d9deda5857a6beabb43df84888c13792a0ea4a0383412b27c8476421233815c2ed2716c4598a146ef55bcd522440b36dc7a3
5e133fd5cd3e1be244a44d3440309c68532f43fc3382e5a83baf9e8993b70b6c98c707d8adf6c2e03413451bf14e00291cd7524e491c6bcc097c6081b3ec0e6e
13701b0719770874395bcb80871e89eaa4b0ef7b53c708c5c93a12cecc633c8ef39e6d7d0eb2b7d9749dc5bc10e4278b4505110f3bf9a2a630b5c2b9446a38b4
0ef3e77d06658dbd9c576cf8f4f498f0023d0202795b61d0fe98a61cd7a346898af748f154aafb262215a8a576ea8f4b16c4598a146ef55bcd522440b36dc7a3
2a8b1f0f0c8266adfc0fb0dd58566872413823518f4e54d33ab74f808b0c16beb90d76ec9a50855d77f8714d1e6a0cd3cadca3424be0002448e7e51ac90df5f1
110e7437c591fff0a4d989832e25b528b406c997bfe534d41985576daad65cc04a0383412b27c8476421233815c2ed2716c4598a146ef55bcd522440b36dc7a3
f72801e3c7db43ede577df5f939bd78c5ea02ff802ad45f0c050b6f0b00f297f4a0383412b27c8476421233815c2ed2716c4598a146ef55bcd522440b36dc7a3
ca81feade30ebc93a9f3bcd7fd9bc17b7fd56cc2845a0148e51a993b31e1e5664a0383412b27c8476421233815c2ed2716c4598a146ef55bcd522440b36dc7a3
e8e7597fe5249a7ca05ac6982334acfbea950076c58d58ed8973e2ffce859e5d4a0383412b27c8476421233815c2ed2716c4598a146ef55bcd522440b36dc7a3
9e85fe6c3c1e8e4126a1bece19c04aef09052dde095028e9ad215dbfb0b7abbe4a0383412b27c8476421233815c2ed2716c4598a146ef55bcd522440b36dc7a3
d8d7c77eda2aa5a97e49500fd792f4c86871de56cc7cb5cfe0521faf237e4aa04a0383412b27c8476421233815c2ed2716c4598a146ef55bcd522440b36dc7a3
b69f898cb814d59183a1a5e225528244ac2a39311faf08bc08fbed15cc822ae58a3e8f3309087adc55a31487df5e80685142cc0309891e322161c3e3b449c576
f6020abc6c9322b84521c7ea74651afc0467189194ff989670169520d0a8d17ddcd23f38f50b2a8149ea2a735e98de6bff8f361498700e06e9bd3b1a24210aaa
837e9fc59d12675c2a39c2e1982c1ed7d664f78dcc5cc6f4b13aca4e36ac71b2a30bd301fc3578b8f11c4b60a6efcb9a27cc8ad299c5706cda6f568484d642d4
4770dafe6d85a90cb94c07494d5e99df0db0c5606117f56870a9806056682ebb3af2a7c1d9b44d96712f0339a66ddc79c22c77c9243c38989b7afb98fa6bb1c7
8758468462318bad25b62e1ecd13e42d9ce5051888dc9e648374ea68f7a444af39346c7f5303b64c613e23249267b0ee14d685e57816d2f47d1a9c55a83658f0
2a8b1f0f0c8266adfc0fb0dd58566872413823518f4e54d33ab74f808b0c16beb90d76ec9a50855d77f8714d1e6a0cd3cadca3424be0002448e7e51ac90df5f1
407404319c2205b345fb51e83ae83c513e4292db06c65bd52fe13992abe6f220282caa3d79f0a890c4b4f27b14acbb6026b90dde4c853995e537818a33b97d61
81f216bfa0fa05683541f95cc98a0259413823518f4e54d33ab74f808b0c16beb90d76ec9a50855d77f8714d1e6a0cd3cadca3424be0002448e7e51ac90df5f1
f038d27c5e1b512ff317ea61ded895f8149db916ce513974f2442797fde51a27ad7939f8fa080cf4575886577232b3579c8c02611539a74b2ad5d98152e891a6
77b3c14c47f875ccba89bae1ba5e2463a30bd301fc3578b8f11c4b60a6efcb9a9825633e12f00d7901aefc09b798877c6e6fc0657cb133348dc3d7e7cc226481
bc4f55865d8e4e5466b33bf680306d6046c7cdceccfaf800286997106b58cbefd7dbd23801c4fe880b1efa6914711fef5111708b7322f9d11d7cd05f5690bdcc
9bcab97207bb1447cb57d36ba4bc3fbc96aec32851458ed5490fe56ff29b36d95b938eb27e4574acec3338156b8dd956dba5ac11d47e5fde91c04273a895a3bf
0923af25c0beaf6761b68b90c7d802f87e1192f1d061abd7585bdbb72f5ac40c587d68131dd576c483b6194c996a614e533903fefafc76869e827e46ae987a1c
4c934ab50ccde9021ff13ba77e2111f4caddd289b243d06c3d7071a503c1d8ee282caa3d79f0a890c4b4f27b14acbb6056e0ea0802de26bb32d38d1a21181dc1
577c76887a0279a1f4ccc9d8c8bda4c7413823518f4e54d33ab74f808b0c16beb90d76ec9a50855d77f8714d1e6a0cd3cadca3424be0002448e7e51ac90df5f1
36969687a11ddc8065471a102f577808c50dd2f38a45902f1b13a47091678e838feeb697790f2ab8501273c61e59cb0ed040c0a28175a83486592906b4e2e18a
c3f7cab7e2c8cfab7ae53dab2ec3c345eee547359f7f60a413bb0b21efefa76e2a2ad9e5686ef3a714a96b0bc6a409f5365ed2662ecf9db254bdbe01b7a42bea
a30281d64862c204aa038b585f84744310bc0c2ec189420ab8be23886ca1d5a2fe652d5a7028e93ea78cc596e1782b3e8844fe04fb7e8ed6baf2789527c8dd8b
3d29a241a3696c0bb89ba8cfe33add3ed51b3930cc6a29ba44836a8795d3dc1bdf77c467065813f508b2d34559d82f191cd7a90d56cafce7aabf9ef02a4b72bc
0880f85d606aca549354c971949fc49581d4ad2197d430aeb148364548bcba50191c7416ca2b643e695e9abb05c9f35f796a4cba84f67ae67c42524a35dc9925
c164efad3e353e9883257ed39eba25e218bb65d3bcb87ef30fb25fe4150b99b44a0383412b27c8476421233815c2ed2716c4598a146ef55bcd522440b36dc7a3
613f82500756374813514ebb359b9b2356467ed112045e3965baf5e8b0f9ee0a155769c1e3be4072e2f6cbf15ff7011516c4598a146ef55bcd522440b36dc7a3
5c4c2aee47bb85ffa914d60ea4797a4179178aed800fef4053febbc2030d1ae8f85c4ed129bf94aa11e9a4c7d742874c9347643c0ad9174d512e6372a3816d88
18ddb3b001b61a493154647425b86d39280d98d1f7e3e703ad0b63b15ecd1a467fed0615efccd8f5cf5c14a4a11af7f59347643c0ad9174d512e6372a3816d88
7cde44140ea9a8ad908b212fe8824ae8c5a6daf7cb9989c120da48bec2d1c75a9a77c43676894f78dc33fccc5c29e352ff6402cc2b1e36f03eb7007f168d3438
8758468462318bad25b62e1ecd13e42dda7006b720b2c480774c579a19c960d7a30bd301fc3578b8f11c4b60a6efcb9a27cc8ad299c5706cda6f568484d642d4
2a8b1f0f0c8266adfc0fb0dd58566872413823518f4e54d33ab74f808b0c16beb90d76ec9a50855d77f8714d1e6a0cd3cadca3424be0002448e7e51ac90df5f1
c264875952479367c09dc954a2db32c02e676fce9b46cee63983f476882fca2a01db627cce74f1d7be31428118281fdb1cd7524e491c6bcc097c6081b3ec0e6e
86b0776e3159529a8d5ca6b2713c65f0b6bfccb0d9622cfbfa1a47cf46a9e2c401db627cce74f1d7be31428118281fdb1cd7524e491c6bcc097c6081b3ec0e6e
3987943fbe77160511cec572ea69cb8704d9577a8516e12c4f99c3ce63745c5501db627cce74f1d7be31428118281fdb1cd7524e491c6bcc097c6081b3ec0e6e
1cd148cae0cc6c263a06a82b5a616d839a6e17f968ee6e0ccd721c0d98f3f3fccdd00ad148f83b2c8045853fab65d603db182e5ea5218148c1ae7323d11e6747
3f1e6fba4a0d369f2d20db10ace6d978d7b9a93e87ceb4a54843f92594a340f6282caa3d79f0a890c4b4f27b14acbb60ba53749e07e329b922a3f06112fb4734
580a792adadc59bbbfd2d41b184fde79f17c2acb2d59597eb9a34c69b62d080538aeacaa208f0c89e4ee8c932fd337810d31003d399f1434409fbf6c8f9f33ac
0f5444f5bf592824da92a6630af949e71db535952976761f03fb95fcc3b0895041f5625f82d7056583a1cdeaa42ea6ef0688f1cb4d3a476e51cc2a28c743c87d
590af55f5db2763fdd2fe24057eb6445cdc56458ab8392baf49ee8b57d7d84ae1a028741aa43a396bf8d21fba2d24255ddbb6ec0cd65c7da11316446d4dc6f69
afd89d37e72eb94fcaaf8d4054da36a573865c5980e92a2aad9374b387c00bd900e52d11377634091b3387d0ea0a6560c068f1add2a10872635914e9d970687d
dba946a784cf1a26a37c194d8114f1e1d9eb2c54392a02a5989c3a20617dd5826ef589107c0e315c2b85910899a1446fe7ecd812989672e96104f99ba4b1aa97
b35b0fe7aab8d6a0270a15854780de3ad5f50058fe6eef61440de6a5bd7b37648adc368c6fe5b701c0ba3f7484ecaa2551c7764a8794a8c229cf2bc5d9bc1c7c
70f0059dfe7f74c8d54654985f5756f85e09fc7c3a8027e4b0498d6d6d734a56a30bd301fc3578b8f11c4b60a6efcb9a27cc8ad299c5706cda6f568484d642d4
510fb077c36880288d370ffdc1e246dff54e46d4ae6d36d760def9b34b9aab41866ed50c60800f5c583060759074495aefba1fa454f47781ffa7d92ee3898729
717d3bdca20de83e401e082357e179566838452b7a6febc215ced5dd95de55d85ad76c88dcd302e75dd0c08830c396d690a664bbea6e632293ccd9a7e14ed8ff
2a8b1f0f0c8266adfc0fb0dd58566872413823518f4e54d33ab74f808b0c16beb90d76ec9a50855d77f8714d1e6a0cd3cadca3424be0002448e7e51ac90df5f1
a765dc6b57c430c12d2ab8204b3fc7395e09fc7c3a8027e4b0498d6d6d734a56a30bd301fc3578b8f11c4b60a6efcb9a27cc8ad299c5706cda6f568484d642d4
954560fe98b2ccf9d9f121ec50b92775792d95225d2537c9fa82c1cbc0b4609268d7a228a48d08accd0b9f1637abd2e3665d33566e49924ed6c86ee6ec6bd41b
8758468462318bad25b62e1ecd13e42d7d8c7ab5856cd95a24d8077fdaf7e5f739346c7f5303b64c613e23249267b0ee14d685e57816d2f47d1a9c55a83658f0
2a8b1f0f0c8266adfc0fb0dd58566872413823518f4e54d33ab74f808b0c16beb90d76ec9a50855d77f8714d1e6a0cd3cadca3424be0002448e7e51ac90df5f1
c61b593ec47f1631be75b0a57268eb9de10108eae84fdf657019190f87c23b32282caa3d79f0a890c4b4f27b14acbb60d3a5001a8613d7766bb770d7709cf4b8
81f216bfa0fa05683541f95cc98a0259413823518f4e54d33ab74f808b0c16beb90d76ec9a50855d77f8714d1e6a0cd3cadca3424be0002448e7e51ac90df5f1
a6f33a4e2778b273e65703b02ea5f051ff69f711ae42754e7f93eecf6eb326d5944ea172b1ccdccab92962d6486041cd49e2dc0927fac020efde4af78cb22e1d
2249c53662b6bb94c8408abd00d18944e21e844a9bbf75da86bf3536db7aebcbd7985cba6391f0c53aefb385167b94fb61b3ef72cd432e97b143b55d9f407396
b618d2ab950968b7915d5dea09a49c1fd55288e6de60369a0e84634dd7a4ba5fd650a669e27956291f1d0a6feb230dd1ee31c2509389646ece6216c03dc25ea3
ec16c9ad3f7ddbc4a318a6d90893b27296aec32851458ed5490fe56ff29b36d95b938eb27e4574acec3338156b8dd956dba5ac11d47e5fde91c04273a895a3bf
a4d1ba90a1fc78ee8d0f11cc9e0ed4da620b7bc22f58cd71eade3b1481dc866b86670a5a62f08fc37d3dfff3e9fa3691796a4cba84f67ae67c42524a35dc9925
590df3561c4c93027da52a32dec6120d8e2ff75e56e4185ec8f4de51fd7e62644a0383412b27c8476421233815c2ed2716c4598a146ef55bcd522440b36dc7a3
5380889b2fa2f0c2bfd3e1731ccfd8edeff99fb65ecad0ceb1b6e94695b6fc2ff85c4ed129bf94aa11e9a4c7d742874c9347643c0ad9174d512e6372a3816d88
31f2c8bf245b60b56c0248df4c62b1d05d828212cd144cde3d356158b933a2a001db627cce74f1d7be31428118281fdb1cd7524e491c6bcc097c6081b3ec0e6e
712c2d817fb61f68bb87e8525c1cff64d7ffaab9e63f74511dc4b247ed5329bf01db627cce74f1d7be31428118281fdb1cd7524e491c6bcc097c6081b3ec0e6e
767a81a4eb7e96c210920a5559f7064adce8640398aec5d2fbee4a5af6cd8b4701db627cce74f1d7be31428118281fdb1cd7524e491c6bcc097c6081b3ec0e6e
503431dba712c0dadb4d5ff1e64573e0939c351943798871de6e3bd2ad0dfa1201db627cce74f1d7be31428118281fdb1cd7524e491c6bcc097c6081b3ec0e6e
75f5216d06ef3386128836a2dbad79790467189194ff989670169520d0a8d17d6ce7c922259e84d897dd9997d782c03aadbf8f546608686639708fd6adb335a3
66088ccd334b5c2b08f610b11af1f101bbea993b6cbf005ed6164e6286e14f5ea30bd301fc3578b8f11c4b60a6efcb9a27cc8ad299c5706cda6f568484d642d4
091b90440748242a27790dc5275923c1a0121d85696ce53100b9b4c51c71ebbe3af2a7c1d9b44d96712f0339a66ddc791a4629e1dd7f0256b604daf9ca9424fb
8758468462318bad25b62e1ecd13e42d14c28237f5eceec8eb7dd319877afe9e39346c7f5303b64c613e23249267b0ee14d685e57816d2f47d1a9c55a83658f0
2a8b1f0f0c8266adfc0fb0dd58566872413823518f4e54d33ab74f808b0c16beb90d76ec9a50855d77f8714d1e6a0cd3cadca3424be0002448e7e51ac90df5f1
1c635d6fbc47008f3e616e608e9a60053e4292db06c65bd52fe13992abe6f220282caa3d79f0a890c4b4f27b14acbb6000a4f3188d88f09318b82e5eb524999b
81f216bfa0fa05683541f95cc98a0259413823518f4e54d33ab74f808b0c16beb90d76ec9a50855d77f8714d1e6a0cd3cadca3424be0002448e7e51ac90df5f1
329893f2f9dad94cbf8c5bf462a78c6109dbc333507b46b27ac856f2705cf4178ebe92eb4184870cf8a08e89b1bad21f8669ac97bb563103ee24ccbda41c44e6
4be89adb9885ca818ca0500ad147a3d1d9eb2c54392a02a5989c3a20617dd5826ef589107c0e315c2b85910899a1446fe7ecd812989672e96104f99ba4b1aa97
329893f2f9dad94cbf8c5bf462a78c6109dbc333507b46b27ac856f2705cf4178ebe92eb4184870cf8a08e89b1bad21f8669ac97bb563103ee24ccbda41c44e6
580a792adadc59bbbfd2d41b184fde79f17c2acb2d59597eb9a34c69b62d080538aeacaa208f0c89e4ee8c932fd337810d31003d399f1434409fbf6c8f9f33ac
329893f2f9dad94cbf8c5bf462a78c6109dbc333507b46b27ac856f2705cf417816c6bb0af64e79080aca4f895460a777e2c85d4a72aaa1a2f383b3580fc2166
0ed63cdd3ad7d1548fb3d34374e9454fcaddd289b243d06c3d7071a503c1d8ee282caa3d79f0a890c4b4f27b14acbb605c6e36cfaa1d01524f64bf1570e43f28
577c76887a0279a1f4ccc9d8c8bda4c7413823518f4e54d33ab74f808b0c16beb90d76ec9a50855d77f8714d1e6a0cd3cadca3424be0002448e7e51ac90df5f1
329893f2f9dad94cbf8c5bf462a78c6109dbc333507b46b27ac856f2705cf4178ebe92eb4184870cf8a08e89b1bad21f8669ac97bb563103ee24ccbda41c44e6
4be89adb9885ca818ca0500ad147a3d1d9eb2c54392a02a5989c3a20617dd5826ef589107c0e315c2b85910899a1446fe7ecd812989672e96104f99ba4b1aa97
329893f2f9dad94cbf8c5bf462a78c6109dbc333507b46b27ac856f2705cf4178ebe92eb4184870cf8a08e89b1bad21f8669ac97bb563103ee24ccbda41c44e6
580a792adadc59bbbfd2d41b184fde79f17c2acb2d59597eb9a34c69b62d080538aeacaa208f0c89e4ee8c932fd337810d31003d399f1434409fbf6c8f9f33ac
329893f2f9dad94cbf8c5bf462a78c6109dbc333507b46b27ac856f2705cf417816c6bb0af64e79080aca4f895460a777e2c85d4a72aaa1a2f383b3580fc2166
2ca728937d85c52404c68a4d270e723a95b4b4db0d201ed503faec4524cc08ca4a0383412b27c8476421233815c2ed2716c4598a146ef55bcd522440b36dc7a3
4ea1da0bb7409dddaa08a03fd4d0fffcdcbaea8592eba80f15539e202b858ddc155769c1e3be4072e2f6cbf15ff7011516c4598a146ef55bcd522440b36dc7a3
9e9f83a1c4a155b5a4cda59eb73eb2bf79178aed800fef4053febbc2030d1ae8f85c4ed129bf94aa11e9a4c7d742874c9347643c0ad9174d512e6372a3816d88
3205f5b1a35ad9b71fde283399035809c053349a231d0e3a810325a74d1e4b2d7fed0615efccd8f5cf5c14a4a11af7f59347643c0ad9174d512e6372a3816d88
a39c7d60a147f7fdbb7768155adf907c815c3db210c992b24bf1fbced4b851f69a77c43676894f78dc33fccc5c29e352dad89db0d69ba90732a360d57aea3f2a
8758468462318bad25b62e1ecd13e42d7b40591f8402cf6b7731665898500f65a30bd301fc3578b8f11c4b60a6efcb9a27cc8ad299c5706cda6f568484d642d4
2a8b1f0f0c8266adfc0fb0dd58566872413823518f4e54d33ab74f808b0c16beb90d76ec9a50855d77f8714d1e6a0cd3cadca3424be0002448e7e51ac90df5f1
4e8d828b69f152a4f890e6c2d32debc62e676fce9b46cee63983f476882fca2a01db627cce74f1d7be31428118281fdb1cd7524e491c6bcc097c6081b3ec0e6e
ceb818c201628c093c2108a663c31dd7b6bfccb0d9622cfbfa1a47cf46a9e2c401db627cce74f1d7be31428118281fdb1cd7524e491c6bcc097c6081b3ec0e6e
99f18a4b181a72f22880a7a2306e394b04d9577a8516e12c4f99c3ce63745c5501db627cce74f1d7be31428118281fdb1cd7524e491c6bcc097c6081b3ec0e6e
7ee4ce050df77826b58afe1d495ecdce0467189194ff989670169520d0a8d17da7d8de97e74012590cab315981be02b83fa941ecaefd452c5e36dac03a4efb80
40dff9c3aad74b919a2ff152361d1de1f85b332a8cca644fed45c2166605cc08a30bd301fc3578b8f11c4b60a6efcb9a27cc8ad299c5706cda6f568484d642d4
46b22bbfefb41c2d39eda7875ebf6f5a78a1a6f4329fe563178844dc9519e05b3af2a7c1d9b44d96712f0339a66ddc79a61e730f6c5d3db6b802e319c6f7d07d
8758468462318bad25b62e1ecd13e42dbe8902e1204308431fffb52609feaaa739346c7f5303b64c613e23249267b0ee14d685e57816d2f47d1a9c55a83658f0
2a8b1f0f0c8266adfc0fb0dd58566872413823518f4e54d33ab74f808b0c16beb90d76ec9a50855d77f8714d1e6a0cd3cadca3424be0002448e7e51ac90df5f1
80da9e7df6737d090acbbeabc72425b03e4292db06c65bd52fe13992abe6f220282caa3d79f0a890c4b4f27b14acbb6000a4f3188d88f09318b82e5eb524999b
81f216bfa0fa05683541f95cc98a0259413823518f4e54d33ab74f808b0c16beb90d76ec9a50855d77f8714d1e6a0cd3cadca3424be0002448e7e51ac90df5f1
329893f2f9dad94cbf8c5bf462a78c6109dbc333507b46b27ac856f2705cf4178ebe92eb4184870cf8a08e89b1bad21f8669ac97bb563103ee24ccbda41c44e6
4be89adb9885ca818ca0500ad147a3d1d9eb2c54392a02a5989c3a20617dd5826ef589107c0e315c2b85910899a1446fe7ecd812989672e96104f99ba4b1aa97
329893f2f9dad94cbf8c5bf462a78c6109dbc333507b46b27ac856f2705cf4178ebe92eb4184870cf8a08e89b1bad21f8669ac97bb563103ee24ccbda41c44e6
580a792adadc59bbbfd2d41b184fde79f17c2acb2d59597eb9a34c69b62d080538aeacaa208f0c89e4ee8c932fd337810d31003d399f1434409fbf6c8f9f33ac
329893f2f9dad94cbf8c5bf462a78c6109dbc333507b46b27ac856f2705cf417816c6bb0af64e79080aca4f895460a777e2c85d4a72aaa1a2f383b3580fc2166
f13a46832d066f1c40c169ed70d6fa67caddd289b243d06c3d7071a503c1d8ee282caa3d79f0a890c4b4f27b14acbb605c6e36cfaa1d01524f64bf1570e43f28
577c76887a0279a1f4ccc9d8c8bda4c7413823518f4e54d33ab74f808b0c16beb90d76ec9a50855d77f8714d1e6a0cd3cadca3424be0002448e7e51ac90df5f1
329893f2f9dad94cbf8c5bf462a78c6109dbc333507b46b27ac856f2705cf4178ebe92eb4184870cf8a08e89b1bad21f8669ac97bb563103ee24ccbda41c44e6
4be89adb9885ca818ca0500ad147a3d1d9eb2c54392a02a5989c3a20617dd5826ef589107c0e315c2b85910899a1446fe7ecd812989672e96104f99ba4b1aa97
329893f2f9dad94cbf8c5bf462a78c6109dbc333507b46b27ac856f2705cf4178ebe92eb4184870cf8a08e89b1bad21f8669ac97bb563103ee24ccbda41c44e6
580a792adadc59bbbfd2d41b184fde79f17c2acb2d59597eb9a34c69b62d080538aeacaa208f0c89e4ee8c932fd337810d31003d399f1434409fbf6c8f9f33ac
329893f2f9dad94cbf8c5bf462a78c6109dbc333507b46b27ac856f2705cf417816c6bb0af64e79080aca4f895460a777e2c85d4a72aaa1a2f383b3580fc2166
bd6bc30f05f24e282b29ba89dd8d998d53262f60f097dbea7f3336e79b5eb8d04a0383412b27c8476421233815c2ed2716c4598a146ef55bcd522440b36dc7a3
c9c7014897cc2b41bbae384ba28d9c674b22f0acc5fb91016413bdb3014d2206155769c1e3be4072e2f6cbf15ff7011516c4598a146ef55bcd522440b36dc7a3
45b01bfc13be4079d8f526e94a88f7db79178aed800fef4053febbc2030d1ae8f85c4ed129bf94aa11e9a4c7d742874c9347643c0ad9174d512e6372a3816d88
597a0256d5788261f230d472ee42aec2fcfb4426355da166c9b5c743c57822c97fed0615efccd8f5cf5c14a4a11af7f59347643c0ad9174d512e6372a3816d88
e95ed95ef11f9555ff78aca7ff0de5fb45683fe53110be811f5761c27d67c6689a77c43676894f78dc33fccc5c29e352f299624bff515253451d68d4bd54a3fa
8758468462318bad25b62e1ecd13e42dd60bcca441d6b552eb7e3d53b96ae2b0a30bd301fc3578b8f11c4b60a6efcb9a27cc8ad299c5706cda6f568484d642d4
2a8b1f0f0c8266adfc0fb0dd58566872413823518f4e54d33ab74f808b0c16beb90d76ec9a50855d77f8714d1e6a0cd3cadca3424be0002448e7e51ac90df5f1
4b0f75a29ba6f4063c49d3f5b2f3333a2e676fce9b46cee63983f476882fca2a01db627cce74f1d7be31428118281fdb1cd7524e491c6bcc097c6081b3ec0e6e
a8750e016a115a5ca52468bacedb2990b6bfccb0d9622cfbfa1a47cf46a9e2c401db627cce74f1d7be31428118281fdb1cd7524e491c6bcc097c6081b3ec0e6e
c80e1a9e7d8219f74dadec45fcb835d604d9577a8516e12c4f99c3ce63745c5501db627cce74f1d7be31428118281fdb1cd7524e491c6bcc097c6081b3ec0e6e
e675f0298afa729bab4ecf8305913f314641c3438416463f6c828e966277b5b67c3f3eb4fd1a3395a65f5a663a3d5bf06df2b03058d93cbb0ab52f3296c37bb3
77b4bd4a690b051c43478b1aa235df93963081ed5cc82d197de54affc6c0e08707e91b726dd65bbb904b7a53552a5b2c6cb4f683f53a9e1f4d4e771e5859ac42
68cdc4c48e284232afe8a1118d621376e21e844a9bbf75da86bf3536db7aebcbd7985cba6391f0c53aefb385167b94fb61b3ef72cd432e97b143b55d9f407396
9db73235540fd59cb135e7a26b8c65ccefb2e4a58d62768ed001c4931864c1a30123ca07c4ba080decb9393080ef84f5df45dbda00ff9987bcbc97f015b856ec
ffa0d32c83a0fa671ddbf9770c769caa00d07acb2d964cc64e0944f7545b3fe682b873ad566fb2c783d032117f3525f24adfa583595f2d3ff8e0a301b4c4d5d1
613ccb426dd5686ebbb5b8a79a8c6a8fc025f1d664ef4f023e011abc0da0e975c0999ba1cf408bcd11be3945f3bd3167796a4cba84f67ae67c42524a35dc9925
31151bb1a12f4d7842be6ada0e0d4e3f81f7dbb203dbe399fa7b81f674e5059b642460820b689c7fc64d73d8429864200570faf6c66a3b66a46241206b7daf42
05bfc5cd66a9007b2c3c41b8fa14d8d1e3ac5a08c7ac47be924375adc89b377afc5bb888633ce593a3aa10bb44c10bea1cd7524e491c6bcc097c6081b3ec0e6e
1d1d78d5a57f6c1da8dfcf47699348ea6b92c64866e6f8d4d527e6d1e6478fdee21e844a9bbf75da86bf3536db7aebcb5b6f7e563c944225596c0c8d7ba380e3
8c7ba2cf1a6f7c875610b72ca6519d9562dfaedafce7375ab8fafb406d131940e21e844a9bbf75da86bf3536db7aebcb5b6f7e563c944225596c0c8d7ba380e3
fe45b15eb93c07d8ab5480117059e334858d57fd29573c066e96555ec2e631c909b838486b3af7bab33a0a57107b1684314b55a658b54fc85e1710acea0855ea
7ff1225a2605c237cde6629d74cd8bd0b3a3b2c33edf7176aba60db866c9badd39346c7f5303b64c613e23249267b0ee14d685e57816d2f47d1a9c55a83658f0
2a8b1f0f0c8266adfc0fb0dd58566872413823518f4e54d33ab74f808b0c16beb90d76ec9a50855d77f8714d1e6a0cd3cadca3424be0002448e7e51ac90df5f1
31789c5ecf822b1c0f10b940a6cc87bfd4759b057dd001b57b5654af501d2b5eceba56f141cec79a13bf2d937f4e8f2190a664bbea6e632293ccd9a7e14ed8ff
55c0f0627f1c4edace534a391dcaf19a3f372a2f3b6c3d6dbed1e41c76abcd3ca30bd301fc3578b8f11c4b60a6efcb9a27cc8ad299c5706cda6f568484d642d4
56531ec911476bf6840db939474ef50784f6859da7c2a95ec21e3cdc50b141c7a30bd301fc3578b8f11c4b60a6efcb9a27cc8ad299c5706cda6f568484d642d4
a8176cea169f1af74c1ca9550a7f69ae840fdea2216175b058dfa81fe72960a46a79e4bdeed1d4f0c109dc244fae4dadfd1886a0294b63d25531dbf75ac35109
5a71962cf2a342d86feecb8d7baa375b515ca33166f26e5cd4578441ffbf3cc3760dfcc69d260db0fbfd5cb84efbe66e0729460c3a368e06f475e034401b83d2
f49d04cb7aa1ca38dc3d020d6c4b36889a6b73a2a76bbb7a4d9a03618cfe021b63ffc75a664b103d117a3e7117df194989a5748236719031353b9b39934860cf
e83e45f48311a14eee28850a93b7a858cdc56458ab8392baf49ee8b57d7d84ae1a028741aa43a396bf8d21fba2d24255ddbb6ec0cd65c7da11316446d4dc6f69
34c9ae91d5e81e01d4ffdac85707b9745e1700d5b38131659585fcbcfd2d918b975d028a61e2203b0dfcfcfd8e0437fef15fd131d9d5dc35e02f4de7800340a4
af272c6dc54d40e75d102d2fa6bdb55900d07acb2d964cc64e0944f7545b3fe682b873ad566fb2c783d032117f3525f24adfa583595f2d3ff8e0a301b4c4d5d1
b7de1c7033359da964caee6d7a956db0ab95ed7047566d4a7632b1fcbd0cd177ce67775c530bd160d3afffcecc275219f38baf60ec525235bdd007c54c3d6a94
8ed119388f609ec17143803eccb2af26690edde1549310bad1449961e23605b76a79e4bdeed1d4f0c109dc244fae4dad665d1dc5c1d3f9147354219735f71aa8
16d7c39b8255e47058fd6952dac520fb515ca33166f26e5cd4578441ffbf3cc3760dfcc69d260db0fbfd5cb84efbe66e0729460c3a368e06f475e034401b83d2
2bc583e1dbad723de9ea7e01911024afe35ca77310928cf8aed4a4f49d95a640434b40b9aa6556b4907872ff30877c943fe5dfb69ecd33533adbac656ce6bb53
e31823b6c9ff5dbc4d212a0659cfc63ae21e844a9bbf75da86bf3536db7aebcbd7985cba6391f0c53aefb385167b94fb61b3ef72cd432e97b143b55d9f407396
6e3a15b5814198aaf301858717cda6e6a64751b5da9e0f02919975e3eea6a4000787f75a5c0c01c8a3de33710337f58fd2e48325c2d09b303511ea248c9475a5
60eb0091b14826fe8ba21752a12ca54cd51b3930cc6a29ba44836a8795d3dc1bdf77c467065813f508b2d34559d82f191cd7a90d56cafce7aabf9ef02a4b72bc
29e607c9f0e79ad7e1327eb607b879b629968a5a3a65171fd25fa1d5b7bc4926ebf7eedfa2b5b6d8cdcf244e5fafb7e1b97ce3d4ca8c85f9736af932b5ed66d3
add01d1a080fe4b97f1bcfa2563512562fb6927b1f16dae86710968d6bd488822abfb7f4b7fd017b9abf476b602d9fc56d45e052f7784779a474ff71e47c7a71
3da5c686b0fedd6d9f2a61433126b21e83a0bc26b2a7783b8a01b552e6b77d826a79e4bdeed1d4f0c109dc244fae4dadb3f42356cac593884ff992cdf8d81e38
7dc603668d44d5dde14aaf6f8eb2b2ac96aec32851458ed5490fe56ff29b36d95b938eb27e4574acec3338156b8dd956dba5ac11d47e5fde91c04273a895a3bf
b49586c4d530f0d2a46a330c02171f15c6a47d0e4abb82474c2d55474326eac906dad99c60184df3bf56d6169edeb617034c29c8b3084f5f3a6ae6e38f48d590
09db3f8f0fefd1b6e47669275a573be5cdc56458ab8392baf49ee8b57d7d84ae1a028741aa43a396bf8d21fba2d24255ddbb6ec0cd65c7da11316446d4dc6f69
a3d2ee6a4ef144c58edd9396e726510753792dab32d00d0fa926eb435bcf3afae07d5a30cd1842a808bb24d571ebf6f429ccd026c709294b14bb4cc8537da2e4
b7d937de505f6e090e28bc5fd05ddc0e00d07acb2d964cc64e0944f7545b3fe682b873ad566fb2c783d032117f3525f24adfa583595f2d3ff8e0a301b4c4d5d1
ea9f03d8f4deab5946a0f06a780c59ee270f1725eb2cafe40fb98254a9d0632afbc22c823b9023c1fbe7bfe06db68288f38baf60ec525235bdd007c54c3d6a94
ddfcab15b61f336ddf6a9ca51f1f9937e25d4902559722af60326ec27c643286f87ceea6167edd86848a4297a7897cc216c4598a146ef55bcd522440b36dc7a3
574b4cf55fde510b42cc052b1565fbf21800d91bc299de4f80a9a4bbfe9c121c1140c96cd668dd8deb349b0fe799896694267caea1879259ef2e977ca69df8e7
6951ac4be664622bf4a471f8156554c380470aaf3853d70413c1676e746258d198c707d8adf6c2e03413451bf14e00291cd7524e491c6bcc097c6081b3ec0e6e
a692b320e57f56f5a60034073f57ef89cc3985b038c9256b4248cd302ae251db6c735995a7fbd595c3af8f39925caf531e787c83c0b254f15338c333f0378123
cc5202f79f65740c483d8a2e5c79b06293ad3d275c01256cb65613125edd8dd57e107120ea206a70baa33f89a6173ab5149ac856e4d02b470503d76d3ad4b0c6
2a8b1f0f0c8266adfc0fb0dd58566872413823518f4e54d33ab74f808b0c16beb90d76ec9a50855d77f8714d1e6a0cd3cadca3424be0002448e7e51ac90df5f1
579c1e69ee6c81938a6c9854ea28aaab80470aaf3853d70413c1676e746258d198c707d8adf6c2e03413451bf14e00291cd7524e491c6bcc097c6081b3ec0e6e
4274b9a58f02efa163f976c6ebbaaddd43b2de31ddd0a8b94e1017342b2d1fc41df432a894cbfe105efc7a2f1dd073d1424a65d39896998a9b80c066f159ee65
419c96b153cfdefdf4506b0dafbd19c0f017a1075f60c9d6393f4e64ee9d5b3dadfe406b27e71ab57390fb63caec01b016c4598a146ef55bcd522440b36dc7a3
2a8b1f0f0c8266adfc0fb0dd58566872413823518f4e54d33ab74f808b0c16beb90d76ec9a50855d77f8714d1e6a0cd3cadca3424be0002448e7e51ac90df5f1
23a44f269c3b6f1dd444d70583f4da36941d70cbf27c25384e600149d9c5e5931fde1a1a52be86b8c6ee975a83bac1626a1e8a5f17520f5bb82ce46e8845c5a1
9ec767129535a256a786226caca9fe2181ba5306692f23baa906c800d7d80f731fde1a1a52be86b8c6ee975a83bac1626a1e8a5f17520f5bb82ce46e8845c5a1
c3768a163aa410f2440315061cd059aec8f5449a72d62a78150366395f71da0368abf76b387d0268bf9546150a4c8642d8dd189267c29d82bb4b08269141f6f9
114e48bb3faad436c0adc66ac672c942c8a97bd400883b69eb8eda09b9d69d2a1fde1a1a52be86b8c6ee975a83bac1626a1e8a5f17520f5bb82ce46e8845c5a1
0e1a0626b5ca62a3af18d2db69e1909d02ff0af5757ddc3691dce0293374d54dbde3bcd2a82e9a13d982bb666efe8a3590a664bbea6e632293ccd9a7e14ed8ff
7dffd9c8442a91ee1645ee2e3d77547143b2de31ddd0a8b94e1017342b2d1fc4e117d4cc73563a020cd561efe9b6143e424a65d39896998a9b80c066f159ee65
f39e6d7d0eb2b7d9749dc5bc10e4278b47c300948ca6676559372d2c7aab9b4c3a695824ab5fcb760fdae0ae8ac2a583c7880407ce96725d57f2c28e3697378d