* CL21A226MPQNNN Multilayer Ceramic Capacitor Interactive Precise Model For PSPICE
*-----------------------------------------------------------------------------------------------
* Model Generated by Samsung Electro-Mechanics
* Samsung Spice Model Version 5.0
* Products : Multilayer Ceramic Capacitor(General)
*-----------------------------------------------------------------------------------------------
* Characteristics :
*
*     Nominal Capacitance = 22.0uF
*     Capacitance Tolerance = +/-20 %
*     TCC = X5R(-55 ~ +85 degC.)
*     Rated Voltage = 10.0Vdc
*     Size = 0805(unit:inch), 2012(unit:mm)
*     Length = 2.00 +/- 0.15 mm
*     Width = 1.25 +/- 0.15 mm
*     Thickness = 1.25 +/- 0.15 mm
*     Reliability level = Standard
*     Lineup = Normal
*     Feature = Normal
* Applicable condition :
*     Frequency : 100Hz ~ 6GHz
*     Measurement Temperature : X5R(-55 ~ +85 degC.)
*     DC bias Value = 0V ~ 10V
*     Small Signal as Network Analyzer
*-----------------------------------------------------------------------------------------------
* External Node Assignments :
*
*  1  o---||---o  2
*
*-----------------------------------------------------------------------------------------------
**$ENCRYPTED_LIB
**$INTERFACE
.SUBCKT CL21A226MPQNNN_Precise_Interactive Port1 Port2
$CDNENCSTART_ADV2
17f62b1fb318c25603aeb85644ae98a5d179ef807807791f6459efacb9d7ffc35a73a37243d4cce46a460e928d7c8f9c39ee99122a9d3f96f7d47fafa32ba578
f42281a1e01984ca61ee9568245776d80530244a17a14619c2ea4aed6910fcba59cee04865e9bc14f0b6ed9d7801ca6cd5309b54f5ec18f3d6f7f70c210b48b7
a86a7d20ab69a48da0a668c2baf2029abdfef978baf76a2790d95e35bf4e3a1e5a559b68728f37a3663b6fc1714b8ad9237d14d0be40b6a7235404f178b8a6e6
e6603772a720e5e1342b1d853a79526aa7320927021dccc6dc6432733779b248f7ccbbd5c8987f8c50badcd4c97c63265ab24a057f2e9488018b60406444c7ca
3bf7f9cc72933563444e9e6fb83c1156186b6216d6a82d259ffcf191295467da4155dca27cc9ebcbbb8bda1005b68d58d06d3fbc5c8737c8960dd9eadaeb4ead
34373a0383cb2807fc406d1804c3457d2a909cec1ff017153535082b1749bad512928c2aa24ecf13990641b0db50974094c9694edf386917e48df75c336c2691
224baa50c653beb0f5d9d55eaf46f258529298837a88fbd6fb7e763fc8506263d53eaf4bfd90da5d70d2a2231f6513b19b82567251b9c24fbc21d30a51fcc0c2
64c1380ce74c585df69b26456669d94cbc7de16ad55d8fde58dadbf88881eb0e0da64cd2dc7c86722447b0a9550c423b95d16c66f6d26d6fe80f16373a785f9d
86bd874f58d635360bc9fde8100391f3abc12a91777cc2999a8f235598b615eb59cee04865e9bc14f0b6ed9d7801ca6c203738e019cd2f49394a1c0c145207e2
cc4c24774cbd9f63f574366056e3c1100a41ab1c5b661a2ca669a7f2e15aa901ba4850efe5acd20ad975a16c63631aebad7370d3c0132431a76332aedc7aa93d
f6e5050639ec44a056eaa6a7063e2b39ee5647edbf0b06dc1f263555da274477dcc44053d1b842eb8b2a7e1a21496117d7b0ca1ab361de0c550cfa874b1f6826
64e668a4862756ad899033e804688933186b6216d6a82d259ffcf191295467da4155dca27cc9ebcbbb8bda1005b68d58d06d3fbc5c8737c8960dd9eadaeb4ead
cab62ad19337ab294947706e7f656484da89773c877f9d121cd86b6b2a398d28b660113b70c22e1b9a29e0b67629941ba7f6f83389e44ac3231efedf59e91795
4b42ba76a05b6ba6f275aaa146e0bb1b9afc2ff14774d3a7daad4f6f5070e7f7ac672706207bf2c69bfb6f538e32e9c0f801eb0d0a01e7a5a1ccd55b6111ad4a
791b0182b109c4c6291d4418adf26a44114af6b53fb6d2c619adcd7e342ece15c022a03e2f996494436e207fa3a969a720b27f1fc6eeaaec816a7509e770a357
200ed022c151f872c3927a0ddc33fa39517e580e79548316828559a6e27d144a1fb93cf922134a7887f1c0e74a9604d60a7f59b12fd0d35b765ad4967c516784
863e30b5d077e94bcdbf5ca735dee6caf6f5406fc74b7992464e6090f30ed7dc59cee04865e9bc14f0b6ed9d7801ca6c18d897df112863c88cb72dfeaa255439
a1668bffc8fe0661fd31296a25f57ababdfef978baf76a2790d95e35bf4e3a1e5a559b68728f37a3663b6fc1714b8ad9237d14d0be40b6a7235404f178b8a6e6
be800a434ccbcacb74a55fb229ee8a85732eac6250048be9ed139784bc47308094051cea2191ff58506162d01c8d8d1ad483bab390832cae1182cdc6d286f2c2
5e4b0869a799003fb230a0483ef0a8ac0460e119a34513fc535fde15636af360b833f051b833669f71ef9a325e89552786118f438a3163cdc47ae98ea575fb77
d99b9bfe020e42cd2551b4c8a9099ea371b3af105c94364b5d39c5a622724956f42906b7f2f6735de867bef7beaab8fc742777d5447496f741bd9728a2564ea0
df1dc59cb7530042c2ff5650ecf962fed80f259a61d3834d8387c638830d93ba7eed9f0afbffba8e42e8c253f74636d77695fad0ef2a2ac471a199be1a776cda
f72d4e7f74c8b393a79213aa43d3052c83325b64bbcc4967efe61e4aa3fdca330bb7342a10285e7a7be82aac6ed21b23e3d87465fbef6f5c6fca65de36f8a6bb
32c35bf5014e8d856dbbbf527c0d38d7683ee210daab68482169e9016a6a70588ec5b2fb8aed02d11b40159277677ffc81852c8f36097684d3500ef85e9fa17e
f981e6bb46b8ac7f554caa939cd426199afc2ff14774d3a7daad4f6f5070e7f7ac672706207bf2c69bfb6f538e32e9c0f801eb0d0a01e7a5a1ccd55b6111ad4a
349f348680d4b2144d5c1593198057d40a41ab1c5b661a2ca669a7f2e15aa901ba4850efe5acd20ad975a16c63631aebad7370d3c0132431a76332aedc7aa93d
9436275f000b5b8c9bbc9a7e356f32d1243978b95cb978c5c42600b5405d6ebd3f0fbd1935e72b6825f0027b0fc157cf126c634dcb97a2f8eb613b079081e323
f4173bd2bb09df0fab0fa55c89ce4bd3df19da036203dae54184958f115d33c041947e5851d3d51634d00f89a36f79c60246efe4fe9266a669907c770e7269ca
973ba4ccc2530f203eefe4e58b318f98ce47a93d87a566d29fab161ccb126dd0336cfcfb06c6a86e610f9bf92f35dfccc9bb7fbf0deea0fb470d1c61746f936a
349f348680d4b2144d5c1593198057d40a41ab1c5b661a2ca669a7f2e15aa901ba4850efe5acd20ad975a16c63631aebad7370d3c0132431a76332aedc7aa93d
3ab1019e089e885e7907b6fea77bf941243978b95cb978c5c42600b5405d6ebd3f0fbd1935e72b6825f0027b0fc157cf126c634dcb97a2f8eb613b079081e323
6e0d79d96d54093845de8e3a87b861b6a4b0ef7b53c708c5c93a12cecc633c8e419c96b153cfdefdf4506b0dafbd19c04505110f3bf9a2a630b5c2b9446a38b4
86be4f2bf93b143a68b0b296e54e09f14edc3b83455a374832b163c1fc9a2d0f1a43d717e538ca2bd0e0e27adf56b3dbe1409b509b0b651d8a833f5efe708afa
349f348680d4b2144d5c1593198057d40a41ab1c5b661a2ca669a7f2e15aa901ba4850efe5acd20ad975a16c63631aebad7370d3c0132431a76332aedc7aa93d
01e3786b871ba9e3269e3624fbbecd545d6702fee75aafddd0c655027a50fc01f1f3c9438ae200011bfe16012ee2142395c99828a4dfdb2094ff0096f2ee3dea
4666aa858079ab80e559cad1c0372496e729d0f6b9a3d087d410bbfbaf52d6fcadf63598119914e8dd43e158ddfe4150a464d0aa12f4ed2022930af11bb31fde
4286f0e9e6bff4d4dacd5e300f2ca4f7e44efaa20efc0bd6beb7b68d5fecbab09cd221d7ec50355a9bdbf9a4a2ca5c154e01ef47a35e98506c0a6a2e18252537
113519776a59987af694af628617d9deda5857a6beabb43df84888c13792a0eaadf63598119914e8dd43e158ddfe4150a464d0aa12f4ed2022930af11bb31fde
5e133fd5cd3e1be244a44d3440309c68532f43fc3382e5a83baf9e8993b70b6cc437fb10e26759b5f5321c41e588637f118124d339e9a5ce139523af2db78fb3
13701b0719770874395bcb80871e89eaa4b0ef7b53c708c5c93a12cecc633c8ef39e6d7d0eb2b7d9749dc5bc10e4278b4505110f3bf9a2a630b5c2b9446a38b4
0ef3e77d06658dbd9c576cf8f4f498f0023d0202795b61d0fe98a61cd7a346899abfdab03b92f93ddf384e69d7784150a464d0aa12f4ed2022930af11bb31fde
349f348680d4b2144d5c1593198057d40a41ab1c5b661a2ca669a7f2e15aa901ba4850efe5acd20ad975a16c63631aebad7370d3c0132431a76332aedc7aa93d
110e7437c591fff0a4d989832e25b528b406c997bfe534d41985576daad65cc0adf63598119914e8dd43e158ddfe4150a464d0aa12f4ed2022930af11bb31fde
f72801e3c7db43ede577df5f939bd78c5ea02ff802ad45f0c050b6f0b00f297fadf63598119914e8dd43e158ddfe4150a464d0aa12f4ed2022930af11bb31fde
ca81feade30ebc93a9f3bcd7fd9bc17b7fd56cc2845a0148e51a993b31e1e566adf63598119914e8dd43e158ddfe4150a464d0aa12f4ed2022930af11bb31fde
e8e7597fe5249a7ca05ac6982334acfbea950076c58d58ed8973e2ffce859e5dadf63598119914e8dd43e158ddfe4150a464d0aa12f4ed2022930af11bb31fde
9e85fe6c3c1e8e4126a1bece19c04aef09052dde095028e9ad215dbfb0b7abbeadf63598119914e8dd43e158ddfe4150a464d0aa12f4ed2022930af11bb31fde
d8d7c77eda2aa5a97e49500fd792f4c86871de56cc7cb5cfe0521faf237e4aa0adf63598119914e8dd43e158ddfe4150a464d0aa12f4ed2022930af11bb31fde
b69f898cb814d59183a1a5e225528244ac2a39311faf08bc08fbed15cc822ae5f1f3c9438ae200011bfe16012ee2142395c99828a4dfdb2094ff0096f2ee3dea
f6020abc6c9322b84521c7ea74651afc0467189194ff989670169520d0a8d17ddcd23f38f50b2a8149ea2a735e98de6b2421a1a52be59b68c24a9d9d11341938
837e9fc59d12675c2a39c2e1982c1ed7d664f78dcc5cc6f4b13aca4e36ac71b21a43d717e538ca2bd0e0e27adf56b3dbe1409b509b0b651d8a833f5efe708afa
4770dafe6d85a90cb94c07494d5e99df0db0c5606117f56870a9806056682ebb3af2a7c1d9b44d96712f0339a66ddc79c22c77c9243c38989b7afb98fa6bb1c7
8758468462318bad25b62e1ecd13e42d9ce5051888dc9e648374ea68f7a444af496184264c5cc7b9e934e809d8303fffa8e19e20adcc8e46807c4061c5f892cd
349f348680d4b2144d5c1593198057d40a41ab1c5b661a2ca669a7f2e15aa901ba4850efe5acd20ad975a16c63631aebad7370d3c0132431a76332aedc7aa93d
407404319c2205b345fb51e83ae83c513e4292db06c65bd52fe13992abe6f220282caa3d79f0a890c4b4f27b14acbb607a8af7d33a95cf1baa29df170973220b
cc4c24774cbd9f63f574366056e3c1100a41ab1c5b661a2ca669a7f2e15aa901ba4850efe5acd20ad975a16c63631aebad7370d3c0132431a76332aedc7aa93d
65f78a4b9640a7e767e8e69047b3b633e495066411d4a844a17293d0928d42ed7a9564b3a08b0e0769d34bd37d611e575deccc55df953442fe1e4680853ece55
97403a1647045596ff703f372d92335e186b6216d6a82d259ffcf191295467da4155dca27cc9ebcbbb8bda1005b68d58d06d3fbc5c8737c8960dd9eadaeb4ead
11256a724ccf3e6037f7e23b27f124a431efc8d5a33e642904bec1aed8615fa39dbc70670160e2a1cacdf5c45d5af7b6ad25a33a787bf63ff6796cea2c5aa6c9
636ed0160a8385303579526578b71b07529298837a88fbd6fb7e763fc8506263d53eaf4bfd90da5d70d2a2231f6513b19b82567251b9c24fbc21d30a51fcc0c2
8f4213f349f0a4a9ead32b7859844ab5c59302807217c8d8c6734b8a675cf0fac86f5f8881833e30223022ec45c32ab08f0f9dd066b3d5ce22d168f9047c44d1
4c934ab50ccde9021ff13ba77e2111f4caddd289b243d06c3d7071a503c1d8ee282caa3d79f0a890c4b4f27b14acbb60248229724886c8ea0285daeb93aec356
0c0ccc2024f8e4b03d711486b9f388e50a41ab1c5b661a2ca669a7f2e15aa901ba4850efe5acd20ad975a16c63631aebad7370d3c0132431a76332aedc7aa93d
cf25b2a2e0faa3f32d0ea678e459faf334de428da1bd93cdec38c90d6e6e9e2f148a6ebbf3b14b9d3bdaf3313c24e46a580140958e992213ff95a0b2bc504728
c8a0321f75a448c51efed9cfd07bb119186b6216d6a82d259ffcf191295467da4155dca27cc9ebcbbb8bda1005b68d58d06d3fbc5c8737c8960dd9eadaeb4ead
0c39a7c5e9be444f9d186ff672653c2105e090c4f396c9b3bf9cfe3de575b350654857ec57c1dee94c10b3fad18dc8696bf5fb30bcc97518c1f82f970f864d2a
f767df9b1d28c5f82805e652ce5b6b589afc2ff14774d3a7daad4f6f5070e7f7ac672706207bf2c69bfb6f538e32e9c0f801eb0d0a01e7a5a1ccd55b6111ad4a
3cf020d84955318643b2f3f58d5ff9d63e57eac09ad0c63017d1115817de6b79c6f92e89f5cf895edf49da07caa95a339ccad33f63232beec90e9618818fca80
c164efad3e353e9883257ed39eba25e218bb65d3bcb87ef30fb25fe4150b99b4adf63598119914e8dd43e158ddfe4150a464d0aa12f4ed2022930af11bb31fde
613f82500756374813514ebb359b9b2356467ed112045e3965baf5e8b0f9ee0a02148c3827e15e616f7a37a029f0376fa464d0aa12f4ed2022930af11bb31fde
5c4c2aee47bb85ffa914d60ea4797a4179178aed800fef4053febbc2030d1ae80e050908fdfe9af51526fd6da857add0126c634dcb97a2f8eb613b079081e323
18ddb3b001b61a493154647425b86d39280d98d1f7e3e703ad0b63b15ecd1a463f0fbd1935e72b6825f0027b0fc157cf126c634dcb97a2f8eb613b079081e323
7cde44140ea9a8ad908b212fe8824ae8c5a6daf7cb9989c120da48bec2d1c75a9a77c43676894f78dc33fccc5c29e352ff6402cc2b1e36f03eb7007f168d3438
8758468462318bad25b62e1ecd13e42dda7006b720b2c480774c579a19c960d71a43d717e538ca2bd0e0e27adf56b3dbe1409b509b0b651d8a833f5efe708afa
349f348680d4b2144d5c1593198057d40a41ab1c5b661a2ca669a7f2e15aa901ba4850efe5acd20ad975a16c63631aebad7370d3c0132431a76332aedc7aa93d
c264875952479367c09dc954a2db32c02e676fce9b46cee63983f476882fca2a6866987d425b6353c76561d014370560118124d339e9a5ce139523af2db78fb3
86b0776e3159529a8d5ca6b2713c65f0b6bfccb0d9622cfbfa1a47cf46a9e2c46866987d425b6353c76561d014370560118124d339e9a5ce139523af2db78fb3
3987943fbe77160511cec572ea69cb8704d9577a8516e12c4f99c3ce63745c556866987d425b6353c76561d014370560118124d339e9a5ce139523af2db78fb3
1cd148cae0cc6c263a06a82b5a616d839a6e17f968ee6e0ccd721c0d98f3f3fccdd00ad148f83b2c8045853fab65d6030526921abc9429c3c76cea6086dc0923
3f1e6fba4a0d369f2d20db10ace6d978d7b9a93e87ceb4a54843f92594a340f6282caa3d79f0a890c4b4f27b14acbb6005f355d5908e6acce58d2d7e029e18b4
355d0accae3b395497bca3d0258f334c886eefbc5dc50e84b411d00cffc686d23a2034febaabede0680c1042583d3aa1f90a6037c2487186a3fee8a8b994ff78
2a2eabff8fe88151c468d77fe6c8f0bfab97d5e675be80f038e5486e27bee342c33d0266a57b3ba54b8d879fd945b83bf764e69ac468ef2f50bfafaca079e2b6
f85e481b6f0c4f54f7e3bc88fd9a5dc81a43d717e538ca2bd0e0e27adf56b3db65f7f62bbc4ffd9347ce4828b4f171fbb9cc32c4d4eb7340befde6ebfa47ace2
21682b84955a4ab6ea845662d5fef63b6274f65c8b51f876358a1e3d4cde62d7903faf44a8cb3818e09409095484d8f7b49515dc94e4d3bb84d0c1965bb049e7
63194d95a6891b7455f9abf9ddfb67b8d80f259a61d3834d8387c638830d93ba7eed9f0afbffba8e42e8c253f74636d77695fad0ef2a2ac471a199be1a776cda
1d828b3bffc9736032873fd5e1e7edb6cd5e655b336e6531ac1b01d0a81eda2af137c50d9e551f6b80d81a97350d43a09ccad33f63232beec90e9618818fca80
70f0059dfe7f74c8d54654985f5756f85e09fc7c3a8027e4b0498d6d6d734a561a43d717e538ca2bd0e0e27adf56b3dbe1409b509b0b651d8a833f5efe708afa
510fb077c36880288d370ffdc1e246dff54e46d4ae6d36d760def9b34b9aab41866ed50c60800f5c583060759074495aefba1fa454f47781ffa7d92ee3898729
717d3bdca20de83e401e082357e179566838452b7a6febc215ced5dd95de55d8ef6d0637cc162306a8c49f3536847688c8a9eb9bc0d2d2552f1f08f579cee78e
349f348680d4b2144d5c1593198057d40a41ab1c5b661a2ca669a7f2e15aa901ba4850efe5acd20ad975a16c63631aebad7370d3c0132431a76332aedc7aa93d
a765dc6b57c430c12d2ab8204b3fc7395e09fc7c3a8027e4b0498d6d6d734a561a43d717e538ca2bd0e0e27adf56b3dbe1409b509b0b651d8a833f5efe708afa
954560fe98b2ccf9d9f121ec50b92775792d95225d2537c9fa82c1cbc0b4609268d7a228a48d08accd0b9f1637abd2e3665d33566e49924ed6c86ee6ec6bd41b
8758468462318bad25b62e1ecd13e42d7d8c7ab5856cd95a24d8077fdaf7e5f7496184264c5cc7b9e934e809d8303fffa8e19e20adcc8e46807c4061c5f892cd
349f348680d4b2144d5c1593198057d40a41ab1c5b661a2ca669a7f2e15aa901ba4850efe5acd20ad975a16c63631aebad7370d3c0132431a76332aedc7aa93d
c61b593ec47f1631be75b0a57268eb9de10108eae84fdf657019190f87c23b32282caa3d79f0a890c4b4f27b14acbb60ad1397cfc441c09a046c483b72db31bc
cc4c24774cbd9f63f574366056e3c1100a41ab1c5b661a2ca669a7f2e15aa901ba4850efe5acd20ad975a16c63631aebad7370d3c0132431a76332aedc7aa93d
9464a4cdb59b9f821954e532ecc2e4779e60e801ffc3a900c1718054210b835c5d330bc9383692fe374791baabd64f5237566c25c1aba533251993e966898aa1
267bd707027799a3b866135794d1e812186b6216d6a82d259ffcf191295467da4155dca27cc9ebcbbb8bda1005b68d58d06d3fbc5c8737c8960dd9eadaeb4ead
de7867ddf6e6117d3f55c96e3618fa3ed5e6c6522b31329ebd23203a29234ff1b59b062d630127dc6b01c18587012df618fe6febad35387ac402b5e6bf9f8918
dcec9b11cfcf3c390a24109b231502b5bb8ce39e300891900db56b2d7fbcbbd847ba0f5b7c4052e1dce2eecd50a18cc9466e7c35145c7f7c9c4c56945195ecd6
c6421922af9054439e61cdbea841b07e469e1a0b01ee02a3c2c73220e3e4ae64267ec12fce2f2290ded226f3336bab7e280bfcdf5abaf3efe4daaf332e68a164
590df3561c4c93027da52a32dec6120d8e2ff75e56e4185ec8f4de51fd7e6264adf63598119914e8dd43e158ddfe4150a464d0aa12f4ed2022930af11bb31fde
5380889b2fa2f0c2bfd3e1731ccfd8edeff99fb65ecad0ceb1b6e94695b6fc2f0e050908fdfe9af51526fd6da857add0126c634dcb97a2f8eb613b079081e323
31f2c8bf245b60b56c0248df4c62b1d05d828212cd144cde3d356158b933a2a06866987d425b6353c76561d014370560118124d339e9a5ce139523af2db78fb3
712c2d817fb61f68bb87e8525c1cff64d7ffaab9e63f74511dc4b247ed5329bf6866987d425b6353c76561d014370560118124d339e9a5ce139523af2db78fb3
767a81a4eb7e96c210920a5559f7064adce8640398aec5d2fbee4a5af6cd8b476866987d425b6353c76561d014370560118124d339e9a5ce139523af2db78fb3
503431dba712c0dadb4d5ff1e64573e0939c351943798871de6e3bd2ad0dfa126866987d425b6353c76561d014370560118124d339e9a5ce139523af2db78fb3
75f5216d06ef3386128836a2dbad79790467189194ff989670169520d0a8d17d6ce7c922259e84d897dd9997d782c03a15ffe5eabc463f748b0b0695b2676c2e
66088ccd334b5c2b08f610b11af1f101bbea993b6cbf005ed6164e6286e14f5e1a43d717e538ca2bd0e0e27adf56b3dbe1409b509b0b651d8a833f5efe708afa
091b90440748242a27790dc5275923c1a0121d85696ce53100b9b4c51c71ebbe3af2a7c1d9b44d96712f0339a66ddc791a4629e1dd7f0256b604daf9ca9424fb
8758468462318bad25b62e1ecd13e42d14c28237f5eceec8eb7dd319877afe9e496184264c5cc7b9e934e809d8303fffa8e19e20adcc8e46807c4061c5f892cd
349f348680d4b2144d5c1593198057d40a41ab1c5b661a2ca669a7f2e15aa901ba4850efe5acd20ad975a16c63631aebad7370d3c0132431a76332aedc7aa93d
1c635d6fbc47008f3e616e608e9a60053e4292db06c65bd52fe13992abe6f220282caa3d79f0a890c4b4f27b14acbb60ec98a3c59003b29913878a4608f8997a
36e122ca28d192f0c60c14846c268abe0a41ab1c5b661a2ca669a7f2e15aa901ba4850efe5acd20ad975a16c63631aebad7370d3c0132431a76332aedc7aa93d
076853086d681d85896800c1a0edf97aa2ea8c324d31ef7c7a9510543c93e17b52c3163cf92f26e456f21a88e699d0e39173730f61d142c6a6f0681a9c49e9ef
96ffe51f4eb43fa9437a729815e096e31a43d717e538ca2bd0e0e27adf56b3db65f7f62bbc4ffd9347ce4828b4f171fbb9cc32c4d4eb7340befde6ebfa47ace2
d6e70cefc2330cc561c853f7369d7468cb99e590c2c6c6113af9b16eeb5d62c5feceedf830785af59c5cd6c375c2773f195be706ed08398825717348dc1c71f7
7e81fc4730da3df5f9bcb2bde6b4b623bb8ce39e300891900db56b2d7fbcbbd847ba0f5b7c4052e1dce2eecd50a18cc9466e7c35145c7f7c9c4c56945195ecd6
2f246853d5040850cb8314d533d12294e7ab101f086e5564f720f46a507e0cb45010202d5c4601cefd803ba6c05af45458b1f4a9a9c772147edc8af20ba0b343
0ed63cdd3ad7d1548fb3d34374e9454fcaddd289b243d06c3d7071a503c1d8ee282caa3d79f0a890c4b4f27b14acbb602f505245b23d21634a8bb344521cbc38
0c0ccc2024f8e4b03d711486b9f388e50a41ab1c5b661a2ca669a7f2e15aa901ba4850efe5acd20ad975a16c63631aebad7370d3c0132431a76332aedc7aa93d
988d42a6b9ceda8fb921f8b0b89906fa188017e626cf7dd2a075add6e7b8a4cc10fda5a7c83602f18d0095b5c8927714009c84f35e939ca5638e79eba3200a3e
6bcde75efbd8e3a1a2989b9ad7d1c0ca4fd710aaf25ea0edbc37f30eade37332cce57648b0bc597528c5a1652cb6cb2be717265fdbc9ebef5711a2ff4c023ec4
ceb57f29d61fdc1c061e390769a63ab7715a0ca4993f64da09827a33e4003f45c729f8f42f3ed106e5ac940730c7495b040749ede7db5fdafd10e7a285c017b8
5fd43cb7ec25d480d636379c30ceb854529298837a88fbd6fb7e763fc8506263d53eaf4bfd90da5d70d2a2231f6513b19b82567251b9c24fbc21d30a51fcc0c2
8130898a3195146bd8479dd9fa13631aaf57113c67a0f1f510f623ae4699040d244ec8424ed8000a27193a2a662eb51820b27f1fc6eeaaec816a7509e770a357
2ca728937d85c52404c68a4d270e723a95b4b4db0d201ed503faec4524cc08caadf63598119914e8dd43e158ddfe4150a464d0aa12f4ed2022930af11bb31fde
4ea1da0bb7409dddaa08a03fd4d0fffcdcbaea8592eba80f15539e202b858ddc02148c3827e15e616f7a37a029f0376fa464d0aa12f4ed2022930af11bb31fde
9e9f83a1c4a155b5a4cda59eb73eb2bf79178aed800fef4053febbc2030d1ae80e050908fdfe9af51526fd6da857add0126c634dcb97a2f8eb613b079081e323
3205f5b1a35ad9b71fde283399035809c053349a231d0e3a810325a74d1e4b2d3f0fbd1935e72b6825f0027b0fc157cf126c634dcb97a2f8eb613b079081e323
a39c7d60a147f7fdbb7768155adf907c815c3db210c992b24bf1fbced4b851f69a77c43676894f78dc33fccc5c29e352dad89db0d69ba90732a360d57aea3f2a
8758468462318bad25b62e1ecd13e42d7b40591f8402cf6b7731665898500f651a43d717e538ca2bd0e0e27adf56b3dbe1409b509b0b651d8a833f5efe708afa
349f348680d4b2144d5c1593198057d40a41ab1c5b661a2ca669a7f2e15aa901ba4850efe5acd20ad975a16c63631aebad7370d3c0132431a76332aedc7aa93d
4e8d828b69f152a4f890e6c2d32debc62e676fce9b46cee63983f476882fca2a6866987d425b6353c76561d014370560118124d339e9a5ce139523af2db78fb3
ceb818c201628c093c2108a663c31dd7b6bfccb0d9622cfbfa1a47cf46a9e2c46866987d425b6353c76561d014370560118124d339e9a5ce139523af2db78fb3
99f18a4b181a72f22880a7a2306e394b04d9577a8516e12c4f99c3ce63745c556866987d425b6353c76561d014370560118124d339e9a5ce139523af2db78fb3
7ee4ce050df77826b58afe1d495ecdce0467189194ff989670169520d0a8d17da7d8de97e74012590cab315981be02b8a269ec972652b15c1937f0db599e0316
40dff9c3aad74b919a2ff152361d1de1f85b332a8cca644fed45c2166605cc081a43d717e538ca2bd0e0e27adf56b3dbe1409b509b0b651d8a833f5efe708afa
46b22bbfefb41c2d39eda7875ebf6f5a78a1a6f4329fe563178844dc9519e05b3af2a7c1d9b44d96712f0339a66ddc79a61e730f6c5d3db6b802e319c6f7d07d
8758468462318bad25b62e1ecd13e42dbe8902e1204308431fffb52609feaaa7496184264c5cc7b9e934e809d8303fffa8e19e20adcc8e46807c4061c5f892cd
349f348680d4b2144d5c1593198057d40a41ab1c5b661a2ca669a7f2e15aa901ba4850efe5acd20ad975a16c63631aebad7370d3c0132431a76332aedc7aa93d
80da9e7df6737d090acbbeabc72425b03e4292db06c65bd52fe13992abe6f220282caa3d79f0a890c4b4f27b14acbb6000a4f3188d88f09318b82e5eb524999b
cc4c24774cbd9f63f574366056e3c1100a41ab1c5b661a2ca669a7f2e15aa901ba4850efe5acd20ad975a16c63631aebad7370d3c0132431a76332aedc7aa93d
329893f2f9dad94cbf8c5bf462a78c6109dbc333507b46b27ac856f2705cf4178ebe92eb4184870cf8a08e89b1bad21f8669ac97bb563103ee24ccbda41c44e6
4be89adb9885ca818ca0500ad147a3d1b0ce4a3e70b146cfc5a8fe709f31f508db6f3d9e6ca70b499b1e3d99e7fed8c244df7e6e5e23322926e55d56f41c0679
329893f2f9dad94cbf8c5bf462a78c6109dbc333507b46b27ac856f2705cf4178ebe92eb4184870cf8a08e89b1bad21f8669ac97bb563103ee24ccbda41c44e6
355d0accae3b395497bca3d0258f334c886eefbc5dc50e84b411d00cffc686d23a2034febaabede0680c1042583d3aa1f90a6037c2487186a3fee8a8b994ff78
329893f2f9dad94cbf8c5bf462a78c6109dbc333507b46b27ac856f2705cf417816c6bb0af64e79080aca4f895460a77c9c08a31e394d912ce986a7d12dbf53a
f13a46832d066f1c40c169ed70d6fa67caddd289b243d06c3d7071a503c1d8ee282caa3d79f0a890c4b4f27b14acbb605c6e36cfaa1d01524f64bf1570e43f28
0c0ccc2024f8e4b03d711486b9f388e50a41ab1c5b661a2ca669a7f2e15aa901ba4850efe5acd20ad975a16c63631aebad7370d3c0132431a76332aedc7aa93d
329893f2f9dad94cbf8c5bf462a78c6109dbc333507b46b27ac856f2705cf4178ebe92eb4184870cf8a08e89b1bad21f8669ac97bb563103ee24ccbda41c44e6
4be89adb9885ca818ca0500ad147a3d1b0ce4a3e70b146cfc5a8fe709f31f508db6f3d9e6ca70b499b1e3d99e7fed8c244df7e6e5e23322926e55d56f41c0679
329893f2f9dad94cbf8c5bf462a78c6109dbc333507b46b27ac856f2705cf4178ebe92eb4184870cf8a08e89b1bad21f8669ac97bb563103ee24ccbda41c44e6
355d0accae3b395497bca3d0258f334c886eefbc5dc50e84b411d00cffc686d23a2034febaabede0680c1042583d3aa1f90a6037c2487186a3fee8a8b994ff78
329893f2f9dad94cbf8c5bf462a78c6109dbc333507b46b27ac856f2705cf417816c6bb0af64e79080aca4f895460a77c9c08a31e394d912ce986a7d12dbf53a
bd6bc30f05f24e282b29ba89dd8d998d53262f60f097dbea7f3336e79b5eb8d0adf63598119914e8dd43e158ddfe4150a464d0aa12f4ed2022930af11bb31fde
c9c7014897cc2b41bbae384ba28d9c674b22f0acc5fb91016413bdb3014d220602148c3827e15e616f7a37a029f0376fa464d0aa12f4ed2022930af11bb31fde
45b01bfc13be4079d8f526e94a88f7db79178aed800fef4053febbc2030d1ae80e050908fdfe9af51526fd6da857add0126c634dcb97a2f8eb613b079081e323
597a0256d5788261f230d472ee42aec2fcfb4426355da166c9b5c743c57822c93f0fbd1935e72b6825f0027b0fc157cf126c634dcb97a2f8eb613b079081e323
e95ed95ef11f9555ff78aca7ff0de5fb45683fe53110be811f5761c27d67c6689a77c43676894f78dc33fccc5c29e352f299624bff515253451d68d4bd54a3fa
8758468462318bad25b62e1ecd13e42dd60bcca441d6b552eb7e3d53b96ae2b01a43d717e538ca2bd0e0e27adf56b3dbe1409b509b0b651d8a833f5efe708afa
349f348680d4b2144d5c1593198057d40a41ab1c5b661a2ca669a7f2e15aa901ba4850efe5acd20ad975a16c63631aebad7370d3c0132431a76332aedc7aa93d
4b0f75a29ba6f4063c49d3f5b2f3333a2e676fce9b46cee63983f476882fca2a6866987d425b6353c76561d014370560118124d339e9a5ce139523af2db78fb3
a8750e016a115a5ca52468bacedb2990b6bfccb0d9622cfbfa1a47cf46a9e2c46866987d425b6353c76561d014370560118124d339e9a5ce139523af2db78fb3
c80e1a9e7d8219f74dadec45fcb835d604d9577a8516e12c4f99c3ce63745c556866987d425b6353c76561d014370560118124d339e9a5ce139523af2db78fb3
e675f0298afa729bab4ecf8305913f314641c3438416463f6c828e966277b5b67c3f3eb4fd1a3395a65f5a663a3d5bf09720c922f676c9e3ec0b634a9de03881
6af82958b288e9a2a4fc582a8a81efd7757eb1e28b0f91cb9be2e2a96e5ce9d09f6f60d2cb526d52700bd4fad8e9158aedcb75091f0f923421266cdf9a976e87
26e51149434f4ebf17228bbdbb687eb0186b6216d6a82d259ffcf191295467da4155dca27cc9ebcbbb8bda1005b68d58d06d3fbc5c8737c8960dd9eadaeb4ead
354e435094d3de9276a228ddcb90610457516d757d156d781d2aa6d203a8b5eb2a383dba964f92e141c92fa47ccd476998080206503d5eed5f5ec48f15f6ec47
24de600bf4b4d8c568e3edec316d6bef529298837a88fbd6fb7e763fc8506263d53eaf4bfd90da5d70d2a2231f6513b19b82567251b9c24fbc21d30a51fcc0c2
33c098b8e4cf997d9a63b0d816b31260f995ec75d8a17f171a23bc50864060ae811a72f9fd0b73fb708a9202079e1c3920b27f1fc6eeaaec816a7509e770a357
31151bb1a12f4d7842be6ada0e0d4e3f81f7dbb203dbe399fa7b81f674e5059b642460820b689c7fc64d73d842986420ab4624e2ee5094a4927d9a04272d4bc9
05bfc5cd66a9007b2c3c41b8fa14d8d1e3ac5a08c7ac47be924375adc89b377a30ebb9f09bc96c01369425db2623cd58118124d339e9a5ce139523af2db78fb3
1d1d78d5a57f6c1da8dfcf47699348ea6b92c64866e6f8d4d527e6d1e6478fde186b6216d6a82d259ffcf191295467da4ec23b68b79fa9948484b237a6e160f9
8c7ba2cf1a6f7c875610b72ca6519d9562dfaedafce7375ab8fafb406d131940186b6216d6a82d259ffcf191295467da4ec23b68b79fa9948484b237a6e160f9
fe45b15eb93c07d8ab5480117059e334858d57fd29573c066e96555ec2e631c909b838486b3af7bab33a0a57107b1684314b55a658b54fc85e1710acea0855ea
7ff1225a2605c237cde6629d74cd8bd0b3a3b2c33edf7176aba60db866c9badd496184264c5cc7b9e934e809d8303fffa8e19e20adcc8e46807c4061c5f892cd
349f348680d4b2144d5c1593198057d40a41ab1c5b661a2ca669a7f2e15aa901ba4850efe5acd20ad975a16c63631aebad7370d3c0132431a76332aedc7aa93d
31789c5ecf822b1c0f10b940a6cc87bfd4759b057dd001b57b5654af501d2b5ebca3328f619dbe89caf7ffc29c79f15bc8a9eb9bc0d2d2552f1f08f579cee78e
55c0f0627f1c4edace534a391dcaf19a3f372a2f3b6c3d6dbed1e41c76abcd3c1a43d717e538ca2bd0e0e27adf56b3dbe1409b509b0b651d8a833f5efe708afa
56531ec911476bf6840db939474ef50784f6859da7c2a95ec21e3cdc50b141c71a43d717e538ca2bd0e0e27adf56b3dbe1409b509b0b651d8a833f5efe708afa
a8176cea169f1af74c1ca9550a7f69ae840fdea2216175b058dfa81fe72960a46a79e4bdeed1d4f0c109dc244fae4dad6ae61fc49477e3ef53dd76e0a909f2c1
d70f496a2f82a0affa084fbe59ffbfa8bb8ce39e300891900db56b2d7fbcbbd847ba0f5b7c4052e1dce2eecd50a18cc9466e7c35145c7f7c9c4c56945195ecd6
38ff4e8c7c482d436408d3c25019a9676570c5365c0ed762929157f5d168f616a94fecefc6262db2d3580ec98b0f9a4be04cb171b7a194984632f3ce40f334a7
4a7bba70add8909cc5e14ae88a567ac44fd710aaf25ea0edbc37f30eade37332cce57648b0bc597528c5a1652cb6cb2be717265fdbc9ebef5711a2ff4c023ec4
96f0d33a79f25edd2ada4b8e810edb0f680bf042403050a0e033814c0d803c0fd70160ff25bfdfa047ea99dc9195d458aad984dfbb6a73575c2bb0456ff90e6e
6162bda09761b337e4fa4722c0c8f28dbb8ce39e300891900db56b2d7fbcbbd847ba0f5b7c4052e1dce2eecd50a18cc9466e7c35145c7f7c9c4c56945195ecd6
6bc922b5b5674a43764b932e7e83bedec46ae86cbf5f47ebedb1d7dcc800e70a05a8693b632740102ee32ff54cda0cf016e5a18a1bf8f1391b723578c15d997f
8ed119388f609ec17143803eccb2af26690edde1549310bad1449961e23605b76a79e4bdeed1d4f0c109dc244fae4dad665d1dc5c1d3f9147354219735f71aa8
7b9c6e255efdf6fa9ec8dbea708a4f4fbb8ce39e300891900db56b2d7fbcbbd847ba0f5b7c4052e1dce2eecd50a18cc9466e7c35145c7f7c9c4c56945195ecd6
73e0341625ce099d040742b9cb4afbddfaa4f5b2b5d7664b50e2232872747a03588c9b4740ebbcfce7453b76a685d12b042cff519c1fb05b4a1021652a2198dc
86403abf9daa12c5861c449239b582e5186b6216d6a82d259ffcf191295467da4155dca27cc9ebcbbb8bda1005b68d58d06d3fbc5c8737c8960dd9eadaeb4ead
c614038785caa7448065b008da93486d67ade191282dd473ee6e4f1742eb2a003eb2d366e7909d35f21fd5eedd3186974c9138f3a76de37ffe34f502cdd29859
c05ce8e27b2d0cf738bf1e781ac0977c529298837a88fbd6fb7e763fc8506263d53eaf4bfd90da5d70d2a2231f6513b19b82567251b9c24fbc21d30a51fcc0c2
58fc42dc2c08569be226f7b9bd65a21f157e7dfb92f2ffa2d17f427e2ae57f61249bf3c72dcfab5e2ffb26360dfbf79ec7fd5ceb846d85c1ac242c1e09c97b33
add01d1a080fe4b97f1bcfa2563512562fb6927b1f16dae86710968d6bd488822abfb7f4b7fd017b9abf476b602d9fc56d45e052f7784779a474ff71e47c7a71
3da5c686b0fedd6d9f2a61433126b21e83a0bc26b2a7783b8a01b552e6b77d826a79e4bdeed1d4f0c109dc244fae4dadb3f42356cac593884ff992cdf8d81e38
2c5de47071129eb4c1b127c6d890aa59529298837a88fbd6fb7e763fc8506263d53eaf4bfd90da5d70d2a2231f6513b19b82567251b9c24fbc21d30a51fcc0c2
6f0f6fcc248889112c5f45e2d137ec7f1a911585039f470bb3d042637d9fc3ff3e78942d07311829f29d00284b170edbe89610cc122cc2a8679b1a1d09643f39
bd9231f5a26055d699088e6382d06efe4fd710aaf25ea0edbc37f30eade37332cce57648b0bc597528c5a1652cb6cb2be717265fdbc9ebef5711a2ff4c023ec4
d172bfc3dbee2b2098928065059e30e041c8468bfc9c2eda4326d2c6d0da386f9d592fe5470d7cc898776a8b19616f20f64c7f38829e510209d3d4a1e823c16d
f4c4c3b651366af5fb659cf319c2d83c529298837a88fbd6fb7e763fc8506263d53eaf4bfd90da5d70d2a2231f6513b19b82567251b9c24fbc21d30a51fcc0c2
da2e73e3c40c0bf0a38a142fc68f60bf99d4a77cfb8fe4c01f2aa205d026370fefad1e98f234b26c5561126c98e8458816e5a18a1bf8f1391b723578c15d997f
ddfcab15b61f336ddf6a9ca51f1f9937e25d4902559722af60326ec27c64328648b67e6b6e6c45a4a0859dd2b7db507ea464d0aa12f4ed2022930af11bb31fde
574b4cf55fde510b42cc052b1565fbf21800d91bc299de4f80a9a4bbfe9c121ceec3b492afae4b2b468fac1c13c7d6a089647395b0b29ce611239c62e19010f9
6951ac4be664622bf4a471f8156554c380470aaf3853d70413c1676e746258d1c437fb10e26759b5f5321c41e588637f118124d339e9a5ce139523af2db78fb3
a692b320e57f56f5a60034073f57ef89cc3985b038c9256b4248cd302ae251db6c735995a7fbd595c3af8f39925caf531e787c83c0b254f15338c333f0378123
cc5202f79f65740c483d8a2e5c79b06293ad3d275c01256cb65613125edd8dd57e107120ea206a70baa33f89a6173ab50e13897fe99b7d0b268548682c942a0a
349f348680d4b2144d5c1593198057d40a41ab1c5b661a2ca669a7f2e15aa901ba4850efe5acd20ad975a16c63631aebad7370d3c0132431a76332aedc7aa93d
579c1e69ee6c81938a6c9854ea28aaab80470aaf3853d70413c1676e746258d1c437fb10e26759b5f5321c41e588637f118124d339e9a5ce139523af2db78fb3
4274b9a58f02efa163f976c6ebbaaddd43b2de31ddd0a8b94e1017342b2d1fc41df432a894cbfe105efc7a2f1dd073d1424a65d39896998a9b80c066f159ee65
419c96b153cfdefdf4506b0dafbd19c0f017a1075f60c9d6393f4e64ee9d5b3dbc729512f9210beb7ee5c98f61c1df97a464d0aa12f4ed2022930af11bb31fde
349f348680d4b2144d5c1593198057d40a41ab1c5b661a2ca669a7f2e15aa901ba4850efe5acd20ad975a16c63631aebad7370d3c0132431a76332aedc7aa93d
23a44f269c3b6f1dd444d70583f4da36941d70cbf27c25384e600149d9c5e5935ede279515fec454695645ce4773620adb7785573a5c12de4650ce2e12bd0957
9ec767129535a256a786226caca9fe2181ba5306692f23baa906c800d7d80f735ede279515fec454695645ce4773620adb7785573a5c12de4650ce2e12bd0957
c3768a163aa410f2440315061cd059aec8f5449a72d62a78150366395f71da0368abf76b387d0268bf9546150a4c86428d3dd924c1d431a32fedffa9b0c747fe
114e48bb3faad436c0adc66ac672c942c8a97bd400883b69eb8eda09b9d69d2a5ede279515fec454695645ce4773620adb7785573a5c12de4650ce2e12bd0957
0e1a0626b5ca62a3af18d2db69e1909d02ff0af5757ddc3691dce0293374d54dda560dec6837a59ad57c6480931898cdc8a9eb9bc0d2d2552f1f08f579cee78e
7dffd9c8442a91ee1645ee2e3d77547143b2de31ddd0a8b94e1017342b2d1fc4e117d4cc73563a020cd561efe9b6143e424a65d39896998a9b80c066f159ee65
f39e6d7d0eb2b7d9749dc5bc10e4278b47c300948ca6676559372d2c7aab9b4c3346431683fd65adace44eddcaaaaad1c9bb7fbf0deea0fb470d1c61746f936a