*
* Ver:          4.2
* Name:         sam0d20_3t64.ibs
* Rev:          1.0
* Date:         6-MAY-2013 17:22:27
* Source:       By GENIBIS V3.2b - GENerate chip IBIS model - 29-APR-2013
* Notes:        Property of ATMEL Corporation
* Disclaimer:
*               (C) Copyright ATMEL Nantes 2002-2013
*               Atmel Nantes makes no warranty for the use of its products, other than
*               those expressly contained in the Company's standard warranty which is detailed
*               in Atmel's Terms and Conditions located on the Company's web site. The Company
*               assumes no responsability for any errors which may appear in this document.
*               The user is granted this license only to use the IBIS model and is not granted
*               rights to sell, load, rent, lease or license the IBIS model in whole or in part,
*               or in modified form to anyone other than user. User may modify the IBIS model
*               to suit its specific applications but rights to derivative works and such
*               modifications shall belong to Atmel Nantes.
*               This IBIS model is provided on an \"AS IS\" basis and Atmel Nantes makes
*               absolutely no warranty with respect to the information contained herein.
* Copyright:    Copyright (c) 2002-2013 by ATMEL Nantes SA
*
* Component:    SAM0D20_TQFP64
* Manufacturer: ATMEL Nantes SAS
*
*
* Output Buffer Models:
*    GPIOPADW100M_M2_PAD__1_TYP
*
* Total: 1 Pin Models Created
*






















.SUBCKT GPIOPADW100M_M2_PAD__TYP_PULLUP 1 2 3 4
R1 1 2 1
G1 2 1 TABLE {V(3,4)} =
+-3.3,0.0882382
+-3.27273,0.0877768
+-2.94545,0.0823994
+-2.61818,0.0769864
+-2.29091,0.0713311
+-1.96364,0.0652092
+-1.63636,0.0583658
+-1.30909,0.0504875
+-0.981818,0.0411499
+-0.654546,0.0297168
+-0.327273,0.0152402
+-0.3,0.0139594
+-0,1e-015
+0.0515625,-0.00233623
+0.103125,-0.00462304
+0.154687,-0.00686028
+0.20625,-0.00904781
+0.257812,-0.0111855
+0.309375,-0.0132731
+0.360937,-0.0153106
+0.4125,-0.0172978
+0.464062,-0.0192346
+0.515625,-0.0211207
+0.567187,-0.0229561
+0.61875,-0.0247405
+0.670312,-0.0264739
+0.721875,-0.0281561
+0.773438,-0.029787
+0.825,-0.0313663
+0.876562,-0.0328939
+0.928125,-0.0343698
+0.979687,-0.0357936
+1.03125,-0.0371654
+1.08281,-0.0384849
+1.13437,-0.039752
+1.18594,-0.0409665
+1.2375,-0.0421284
+1.28906,-0.0432374
+1.34062,-0.0442936
+1.39219,-0.0452967
+1.44375,-0.0462467
+1.49531,-0.0471436
+1.54687,-0.0479874
+1.59844,-0.0487782
+1.65,-0.0495164
+1.70156,-0.0502026
+1.75312,-0.0508378
+1.80469,-0.0514237
+1.85625,-0.0519629
+1.90781,-0.0524586
+1.95937,-0.0529152
+2.01094,-0.0533367
+2.0625,-0.0537275
+2.11406,-0.054091
+2.16562,-0.0544305
+2.21719,-0.0547488
+2.26875,-0.055048
+2.32031,-0.0553301
+2.37187,-0.0555969
+2.42344,-0.0558498
+2.475,-0.0560902
+2.52656,-0.0563192
+2.57812,-0.0565377
+2.62969,-0.0567466
+2.68125,-0.0569468
+2.73281,-0.057139
+2.78437,-0.0573237
+2.83594,-0.0575016
+2.8875,-0.0576731
+2.93906,-0.0578387
+2.99062,-0.0579989
+3.04219,-0.058154
+3.09375,-0.0583043
+3.14531,-0.0584502
+3.19687,-0.058592
+3.24844,-0.0587298
+3.3,-0.0588641
+3.75455,-0.0599199
+4.20909,-0.0608122
+4.66364,-0.0616078
+5.11818,-0.0623788
+5.57273,-0.0632476
+6.02727,-0.0644233
+6.48182,-0.0662141
+6.6,-0.0669429
.ENDS GPIOPADW100M_M2_PAD__TYP_PULLUP

.SUBCKT GPIOPADW100M_M2_PAD__TYP_PULLDOWN 1 2 3 4
R1 1 2 1
G1 2 1 TABLE {V(3,4)} =
+-3.3,-0.119039
+-3.18182,-0.116731
+-2.72727,-0.109277
+-2.27273,-0.101922
+-1.81818,-0.0933315
+-1.36364,-0.0822545
+-0.909091,-0.0662772
+-0.454545,-0.0385898
+0,-1.23442e-010
+0.0515625,0.00461651
+0.103125,0.00908778
+0.154688,0.0134157
+0.20625,0.0176021
+0.257812,0.0216488
+0.309375,0.0255575
+0.360938,0.02933
+0.4125,0.0329679
+0.464062,0.036473
+0.515625,0.0398469
+0.567187,0.0430911
+0.61875,0.0462071
+0.670312,0.0491965
+0.721875,0.0520604
+0.773438,0.0548002
+0.825,0.0574168
+0.876563,0.0599108
+0.928125,0.0622823
+0.979688,0.0645302
+1.03125,0.0666518
+1.08281,0.0686414
+1.13437,0.0704885
+1.18594,0.0721773
+1.2375,0.0736888
+1.28906,0.0750092
+1.34062,0.0761389
+1.39219,0.0770942
+1.44375,0.0779003
+1.49531,0.078584
+1.54688,0.0791689
+1.59844,0.0796744
+1.65,0.0801159
+1.70156,0.0805053
+1.75313,0.0808522
+1.80469,0.0811637
+1.85625,0.0814458
+1.90781,0.081703
+1.95938,0.0819391
+2.01094,0.0821572
+2.0625,0.0823596
+2.11406,0.0825486
+2.16562,0.0827257
+2.21719,0.0828924
+2.26875,0.08305
+2.32031,0.0831995
+2.37188,0.0833418
+2.42344,0.0834775
+2.475,0.0836075
+2.52656,0.0837322
+2.57812,0.0838522
+2.62969,0.0839679
+2.68125,0.0840796
+2.73281,0.0841879
+2.78437,0.0842929
+2.83594,0.0843949
+2.8875,0.0844943
+2.93906,0.0845912
+2.99063,0.084686
+3.04219,0.0847789
+3.09375,0.0848701
+3.14531,0.0849599
+3.19687,0.0850486
+3.24844,0.0851364
+3.3,0.0852237
+3.6,0.0857417
+3.62727,0.0857917
+3.95455,0.086492
+4.28182,0.0875535
+4.60909,0.0893141
+4.93636,0.0922094
+5.26364,0.0967482
+5.59091,0.103481
+5.91818,0.112968
+6.24545,0.125757
+6.57273,0.142365
+6.6,0.144106
.ENDS GPIOPADW100M_M2_PAD__TYP_PULLDOWN

.SUBCKT GPIOPADW100M_M2_PAD__TYP_POWER_CLAMP 1 2 3 4
G1 1 2 TABLE {V(3,4)} =
+-3.3,1.75054
+-3.27273,1.72918
+-2.94545,1.47318
+-2.61818,1.21746
+-2.29091,0.962024
+-1.96364,0.706944
+-1.63636,0.465668
+-1.30909,0.280298
+-0.981818,0.0980621
+-0.654546,0.000962992
+-0.327273,1.3545e-006
+-0.3,5.68321e-007
+-0,1e-015
+0.0515625,1e-015
+0.103125,1e-015
+0.154687,1e-015
+0.20625,1e-015
+0.257812,1e-015
+0.309375,1e-015
+0.360937,1e-015
+0.4125,1e-015
+0.464062,1e-015
+0.515625,1e-015
+0.567187,1e-015
+0.61875,1e-015
+0.670312,1e-015
+0.721875,1e-015
+0.773438,1e-015
+0.825,1e-015
+0.876562,1e-015
+0.928125,1e-015
+0.979687,1e-015
+1.03125,1e-015
+1.08281,1e-015
+1.13437,1e-015
+1.18594,1e-015
+1.2375,1e-015
+1.28906,1e-015
+1.34062,1e-015
+1.39219,1e-015
+1.44375,1e-015
+1.49531,1e-015
+1.54687,1e-015
+1.59844,1e-015
+1.65,1e-015
+1.70156,1e-015
+1.75312,1e-015
+1.80469,1e-015
+1.85625,1e-015
+1.90781,1e-015
+1.95937,1e-015
+2.01094,1e-015
+2.0625,1e-015
+2.11406,1e-015
+2.16562,1e-015
+2.21719,1e-015
+2.26875,1e-015
+2.32031,1e-015
+2.37187,1e-015
+2.42344,1e-015
+2.475,1e-015
+2.52656,1e-015
+2.57812,1e-015
+2.62969,1e-015
+2.68125,1e-015
+2.73281,1e-015
+2.78437,1e-015
+2.83594,1e-015
+2.8875,1e-015
+2.93906,1e-015
+2.99062,1e-015
+3.04219,1e-015
+3.09375,1e-015
+3.14531,1e-015
+3.19687,1e-015
+3.24844,1e-015
+3.3,1e-015
+3.75455,1e-015
+4.20909,1e-015
+4.66364,1e-015
+5.11818,1e-015
+5.57273,1e-015
+6.02727,1e-015
+6.48182,1e-015
+6.6,1e-015
.ENDS GPIOPADW100M_M2_PAD__TYP_POWER_CLAMP

.SUBCKT GPIOPADW100M_M2_PAD__TYP_GND_CLAMP 1 2 3 4
G1 1 2 TABLE {V(3,4)} =
+-3.3,-2.63379
+-3.18182,-2.50764
+-2.72727,-2.02318
+-2.27273,-1.53882
+-1.81818,-1.05449
+-1.36364,-0.570775
+-0.909091,-0.0908497
+-0.454545,-2.06721e-005
+0,-2.78293e-010
+0.0515625,-2.66358e-010
+0.103125,-2.58786e-010
+0.154688,-2.51703e-010
+0.20625,-2.447e-010
+0.257812,-2.37719e-010
+0.309375,-2.30747e-010
+0.360938,-2.2378e-010
+0.4125,-2.16815e-010
+0.464062,-2.09851e-010
+0.515625,-2.02888e-010
+0.567187,-1.95924e-010
+0.61875,-1.8896e-010
+0.670312,-1.81994e-010
+0.721875,-1.75027e-010
+0.773438,-1.68058e-010
+0.825,-1.61086e-010
+0.876563,-1.54112e-010
+0.928125,-1.47136e-010
+0.979688,-1.40156e-010
+1.03125,-1.33173e-010
+1.08281,-1.26187e-010
+1.13437,-1.19197e-010
+1.18594,-1.12204e-010
+1.2375,-1.05206e-010
+1.28906,-9.82043e-011
+1.34062,-9.11981e-011
+1.39219,-8.41873e-011
+1.44375,-7.71715e-011
+1.49531,-7.01507e-011
+1.54688,-6.31246e-011
+1.59844,-5.6093e-011
+1.65,-4.90556e-011
+1.70156,-4.20122e-011
+1.75313,-3.49626e-011
+1.80469,-2.79064e-011
+1.85625,-2.08435e-011
+1.90781,-1.37735e-011
+1.95938,-6.69624e-012
+2.01094,3.88667e-013
+2.0625,7.4815e-012
+2.11406,1.45826e-011
+2.16562,2.16923e-011
+2.21719,2.8811e-011
+2.26875,3.5939e-011
+2.32031,4.30768e-011
+2.37188,5.02248e-011
+2.42344,5.73835e-011
+2.475,6.45534e-011
+2.52656,7.17351e-011
+2.57812,7.89291e-011
+2.62969,8.61361e-011
+2.68125,9.33569e-011
+2.73281,1.00592e-010
+2.78437,1.07843e-010
+2.83594,1.1511e-010
+2.8875,1.22394e-010
+2.93906,1.29698e-010
+2.99063,1.37022e-010
+3.04219,1.44369e-010
+3.09375,1.51745e-010
+3.14531,1.59161e-010
+3.19687,1.66678e-010
+3.24844,1.74845e-010
+3.3,1.90645e-010
+3.6,1e-015
+3.62727,1e-015
+3.95455,1e-015
+4.28182,1e-015
+4.60909,1e-015
+4.93636,1e-015
+5.26364,1e-015
+5.59091,1e-015
+5.91818,1e-015
+6.24545,1e-015
+6.57273,1e-015
+6.6,1e-015
.ENDS GPIOPADW100M_M2_PAD__TYP_GND_CLAMP


.SUBCKT GPIOPADW100M_M2_PAD__TYP_VKUR TRIG 10 IN EN
.model trigger slew(rise_slope=1 fall_slope=1)
Btrigger /trga 0 v={(V(TRIG)>=1.155)*(V(EN)>=1.155)}
Atrigger /trga /trgb trigger
BKUR 10 0 V=PWL v(/trgb)
+ (0,-2.30903e-009) (1e-009,-2.30903e-009) (2e-009,-2.30903e-009) (3e-009,-2.30903e-009) (4e-009,-2.30903e-009)
+ (5e-009,-2.30903e-009) (6e-009,-3.21946e-009) (7e-009,0.000896965) (8e-009,0.121037) (9e-009,0.131155)
+ (1e-008,0.158404) (1.1e-008,0.218929) (1.2e-008,0.291648) (1.3e-008,0.369594) (1.4e-008,0.447939)
+ (1.5e-008,0.524615) (1.6e-008,0.597466) (1.7e-008,0.668377) (1.8e-008,0.732185) (1.9e-008,0.786669)
+ (2e-008,0.829882) (2.1e-008,0.864259) (2.2e-008,0.89126) (2.3e-008,0.912621) (2.4e-008,0.927703)
+ (2.5e-008,0.943396) (2.6e-008,0.953339) (2.7e-008,0.963446) (2.8e-008,0.969856) (2.9e-008,0.976344)
+ (3e-008,0.980516) (3.1e-008,0.984818) (3.2e-008,0.987578) (3.3e-008,0.990367) (3.4e-008,0.992144)
+ (3.5e-008,0.993943) (3.6e-008,0.995109) (3.7e-008,0.996275) (3.8e-008,0.997032) (3.9e-008,0.997799)
+ (4e-008,0.998287) (4.1e-008,0.998775) (4.2e-008,0.999097) (4.3e-008,0.999417) (4.4e-008,0.999552)
+ (4.5e-008,0.999694) (4.6e-008,0.999837) (4.7e-008,0.999972) (4.8e-008,1.00011) (4.9e-008,1.00026)
+ (5e-008,1.0003) (5.1e-008,1.00035) (5.2e-008,1.0004) (5.3e-008,1.00045) (5.4e-008,1.00045)
+ (5.5e-008,1.00045) (5.6e-008,1.00046) (5.7e-008,1.00046) (5.8e-008,1.00046) (5.9e-008,1.00046)
+ (6e-008,1.00046) (6.1e-008,1.00047) (6.2e-008,1.00047) (6.3e-008,1.00047) (6.4e-008,1.00047)
+ (6.5e-008,1.00047) (6.6e-008,1.00047) (6.7e-008,1.00047) (6.8e-008,1.00047) (6.9e-008,1.00048)
+ (7e-008,1.00048) (7.1e-008,1.00048) (7.2e-008,1.00048) (7.3e-008,1.00048) (7.4e-008,1.00048)
+ (7.5e-008,1.00048) (7.6e-008,1.00049) (7.7e-008,1.00049) (7.8e-008,1.00049) (7.9e-008,1.00049)
+ (8e-008,1.00049) (8.1e-008,1.00049) (8.2e-008,1.00049) (8.3e-008,1.00049) (8.4e-008,1.0005)
+ (8.5e-008,1.0005) (8.6e-008,1.0005) (8.7e-008,1.0005) (8.8e-008,1.0005) (8.9e-008,1.0005)
+ (9e-008,1.0005) (9.1e-008,1.0005) (9.2e-008,1.00051) (9.3e-008,1.00051) (9.4e-008,1.00051)
+ (9.5e-008,1.00051) (9.6e-008,1.00051) (9.7e-008,1.00051) (9.8e-008,1.00051) (9.9e-008,1.00051)
+ (1e-007,1.00052) (1.01e-007,1.00052) (1.02e-007,1.00052) (1.03e-007,1.00052) (1.04e-007,1.00052)
+ (1.05e-007,1.00052) (1.06e-007,1.00052) (1.07e-007,1.00053) (1.08e-007,1.00053) (1.09e-007,1.00053)
+ (1.1e-007,1.00053) (1.11e-007,1.00053) (1.12e-007,1.00053) (1.13e-007,1.00053) (1.14e-007,1.00053)
+ (1.15e-007,1.00054) (1.16e-007,1.00054) (1.17e-007,1.00054) (1.18e-007,1.00054) (1.19e-007,1.00054)
+ (1.2e-007,1.00054) (1.21e-007,1.00054) (1.22e-007,1.00054) (1.23e-007,1.00055) (1.24e-007,1.00055)
+ (1.25e-007,1.00055) (1.26e-007,1.00055) (1.27e-007,1.00055) (1.28e-007,1.00055) (1.29e-007,1.00055)
+ (1.3e-007,1.00055) (1.31e-007,1.00056) (1.32e-007,1.00056) (1.33e-007,1.00056) (1.34e-007,1.00056)
+ (1.35e-007,1.00056) (1.36e-007,1.00056) (1.37e-007,1.00056) (1.38e-007,1.00056) (1.39e-007,1.00057)
+ (1.4e-007,1.00057) (1.41e-007,1.00057) (1.42e-007,1.00057) (1.43e-007,1.00057) (1.44e-007,1.00057)
+ (1.45e-007,1.00057) (1.46e-007,1.00058) (1.47e-007,1.00058) (1.48e-007,1.00058) (1.49e-007,1.00058)
+ (1.5e-007,1.00058) (1.51e-007,1.00058) (1.52e-007,1.00058) (1.53e-007,1.00058) (1.54e-007,1.00058)
+ (1.55e-007,1.00058) (1.56e-007,1.00058) (1.57e-007,1.00058) (1.58e-007,1.00058) (1.59e-007,1.00058)
+ (1.6e-007,1.00058) (1.61e-007,1.00058) (1.62e-007,1.00058) (1.63e-007,1.00058) (1.64e-007,1.00058)
+ (1.65e-007,1.00058) (1.66e-007,1.00058) (1.67e-007,1.00058) (1.68e-007,1.00058) (1.69e-007,1.00058)
+ (1.7e-007,1.00058) (1.71e-007,1.00058) (1.72e-007,1.00058) (1.73e-007,1.00058) (1.74e-007,1.00058)
+ (1.75e-007,1.00058) (1.76e-007,1.00058) (1.77e-007,1.00058) (1.78e-007,1.00058) (1.79e-007,1.00058)
+ (1.8e-007,1.00058) (1.81e-007,1.00058) (1.82e-007,1.00058) (1.83e-007,1.00058) (1.84e-007,1.00058)
+ (1.85e-007,1.00058) (1.86e-007,1.00058) (1.87e-007,1.00058) (1.88e-007,1.00058) (1.89e-007,1.00058)
+ (1.9e-007,1.00058) (1.91e-007,1.00058) (1.92e-007,1.00058) (1.93e-007,1.00058) (1.94e-007,1.00058)
+ (1.95e-007,1.00058) (1.96e-007,1.00058) (1.97e-007,1.00058) (1.98e-007,1.00058) (1.99e-007,1.00058)
+ (2e-007,1.00058) (2.01e-007,1.00058) (2.02e-007,1.00058) (2.03e-007,1.00058) (2.04e-007,1.00058)
+ (2.05e-007,1.00058) (2.06e-007,1.00058) (2.07e-007,1.00058) (2.08e-007,1.00058) (2.09e-007,1.00058)
+ (2.1e-007,1.00058) (2.11e-007,1.00058) (2.12e-007,1.00058) (2.13e-007,1.00058) (2.14e-007,1.00058)
+ (2.15e-007,1.00058) (2.16e-007,1.00058) (2.17e-007,1.00058) (2.18e-007,1.00058) (2.19e-007,1.00058)
+ (2.2e-007,1.00058) (2.21e-007,1.00058) (2.22e-007,1.00058) (2.23e-007,1.00058) (2.24e-007,1.00058)
+ (2.25e-007,1.00058) (2.26e-007,1.00058) (2.27e-007,1.00058) (2.28e-007,1.00058) (2.29e-007,1.00058)
+ (2.3e-007,1.00058) (2.31e-007,1.00058) (2.32e-007,1.00058) (2.33e-007,1.00058) (2.34e-007,1.00058)
+ (2.35e-007,1.00058) (2.36e-007,1.00058) (2.37e-007,1.00058) (2.38e-007,1.00058) (2.39e-007,1.00058)
+ (2.4e-007,1.00058) (2.41e-007,1.00058) (2.42e-007,1.00058) (2.43e-007,1.00058) (2.44e-007,1.00058)
+ (2.45e-007,1.00058) (2.46e-007,1.00058) (2.47e-007,1.00058) (2.48e-007,1.00058) (2.49e-007,1.00058)
+ (2.5e-007,1.00058) (2.51e-007,1.00058) (2.52e-007,1.00058) (2.53e-007,1.00058) (2.54e-007,1.00058)
+ (2.55e-007,1.00058) (2.56e-007,1.00058) (2.57e-007,1.00058) (2.58e-007,1.00058) (2.59e-007,1.00058)
+ (2.6e-007,1.00058) (2.61e-007,1.00058) (2.62e-007,1.00058) (2.63e-007,1.00058) (2.64e-007,1.00058)
+ (2.65e-007,1.00058) (2.66e-007,1.00058) (2.67e-007,1.00058) (2.68e-007,1.00058) (2.69e-007,1.00058)
+ (2.7e-007,1.00058) (2.71e-007,1.00058) (2.72e-007,1.00058) (2.73e-007,1.00058) (2.74e-007,1.00058)
+ (2.75e-007,1.00058) (2.76e-007,1.00058) (2.77e-007,1.00058) (2.78e-007,1.00058) (2.79e-007,1.00058)
+ (2.8e-007,1.00058) (2.81e-007,1.00058) (2.82e-007,1.00058) (2.83e-007,1.00058) (2.84e-007,1.00058)
+ (2.85e-007,1.00058) (2.86e-007,1.00058) (2.87e-007,1.00058) (2.88e-007,1.00058) (2.89e-007,1.00058)
+ (2.9e-007,1.00058) (2.91e-007,1.00058) (2.92e-007,1.00058) (2.93e-007,1.00058) (2.94e-007,1.00058)
+ (2.95e-007,1.00058) (2.96e-007,1.00058) (2.97e-007,1.00058) (2.98e-007,1.00058) (2.99e-007,1.00058)
+ (3e-007,1.00058) (3.01e-007,1.00058) (3.02e-007,1.00058) (3.03e-007,1.00058) (3.04e-007,1.00058)
+ (3.05e-007,1.00058) (3.06e-007,1.00058) (3.07e-007,1.00058) (3.08e-007,1.00058) (3.09e-007,1.00058)
+ (3.1e-007,1.00058) (3.11e-007,1.00058) (3.12e-007,1.00058) (3.13e-007,1.00058) (3.14e-007,1.00058)
+ (3.15e-007,1.00058) (3.16e-007,1.00058) (3.17e-007,1.00058) (3.18e-007,1.00058) (3.19e-007,1.00058)
+ (3.2e-007,1.00058) (3.21e-007,1.00058) (3.22e-007,1.00058) (3.23e-007,1.00058) (3.24e-007,1.00058)
+ (3.25e-007,1.00058) (3.26e-007,1.00058) (3.27e-007,1.00058) (3.28e-007,1.00058) (3.29e-007,1.00058)
+ (3.3e-007,1.00058) (3.31e-007,1.00058) (3.32e-007,1.00058) (3.33e-007,1.00058) (3.34e-007,1.00058)
+ (3.35e-007,1.00058) (3.36e-007,1.00058) (3.37e-007,1.00058) (3.38e-007,1.00058) (3.39e-007,1.00058)
+ (3.4e-007,1.00058) (3.41e-007,1.00058) (3.42e-007,1.00058) (3.43e-007,1.00058) (3.44e-007,1.00058)
+ (3.45e-007,1.00058) (3.46e-007,1.00058) (3.47e-007,1.00058) (3.48e-007,1.00058) (3.49e-007,1.00058)
+ (3.5e-007,1.00058) (3.51e-007,1.00058) (3.52e-007,1.00058) (3.53e-007,1.00058) (3.54e-007,1.00058)
+ (3.55e-007,1.00058) (3.56e-007,1.00058) (3.57e-007,1.00058) (3.58e-007,1.00058) (3.59e-007,1.00058)
+ (3.6e-007,1.00058) (3.61e-007,1.00058) (3.62e-007,1.00058) (3.63e-007,1.00058) (3.64e-007,1.00058)
+ (3.65e-007,1.00058) (3.66e-007,1.00058) (3.67e-007,1.00058) (3.68e-007,1.00058) (3.69e-007,1.00058)
+ (3.7e-007,1.00058) (3.71e-007,1.00058) (3.72e-007,1.00058) (3.73e-007,1.00058) (3.74e-007,1.00058)
+ (3.75e-007,1.00058) (3.76e-007,1.00058) (3.77e-007,1.00058) (3.78e-007,1.00058) (3.79e-007,1.00058)
+ (3.8e-007,1.00058) (3.81e-007,1.00058) (3.82e-007,1.00058) (3.83e-007,1.00058) (3.84e-007,1.00058)
+ (3.85e-007,1.00058) (3.86e-007,1.00058) (3.87e-007,1.00058) (3.88e-007,1.00058) (3.89e-007,1.00058)
+ (3.9e-007,1.00058) (3.91e-007,1.00058) (3.92e-007,1.00058) (3.93e-007,1.00058) (3.94e-007,1.00058)
+ (3.95e-007,1.00058) (3.96e-007,1.00058) (3.97e-007,1.00058) (3.98e-007,1.00058) (3.99e-007,1.00058)
+ (4e-007,1.00058) (4.01e-007,1.00058) (4.02e-007,1.00058) (4.03e-007,1.00058) (4.04e-007,1.00058)
+ (4.05e-007,1.00058) (4.06e-007,1.00058) (4.07e-007,1.00058) (4.08e-007,1.00058) (4.09e-007,1.00058)
+ (4.1e-007,1.00058) (4.11e-007,1.00058) (4.12e-007,1.00058) (4.13e-007,1.00058) (4.14e-007,1.00058)
+ (4.15e-007,1.00058) (4.16e-007,1.00058) (4.17e-007,1.00058) (4.18e-007,1.00058) (4.19e-007,1.00058)
+ (4.2e-007,1.00058) (4.21e-007,1.00058) (4.22e-007,1.00058) (4.23e-007,1.00058) (4.24e-007,1.00058)
+ (4.25e-007,1.00058) (4.26e-007,1.00058) (4.27e-007,1.00058) (4.28e-007,1.00058) (4.29e-007,1.00058)
+ (4.3e-007,1.00058) (4.31e-007,1.00058) (4.32e-007,1.00058) (4.33e-007,1.00058) (4.34e-007,1.00058)
+ (4.35e-007,1.00058) (4.36e-007,1.00058) (4.37e-007,1.00058) (4.38e-007,1.00058) (4.39e-007,1.00058)
+ (4.4e-007,1.00058) (4.41e-007,1.00058) (4.42e-007,1.00058) (4.43e-007,1.00058) (4.44e-007,1.00058)
+ (4.45e-007,1.00058) (4.46e-007,1.00058) (4.47e-007,1.00058) (4.48e-007,1.00058) (4.49e-007,1.00058)
+ (4.5e-007,1.00058) (4.51e-007,1.00058) (4.52e-007,1.00058) (4.53e-007,1.00058) (4.54e-007,1.00058)
+ (4.55e-007,1.00058) (4.56e-007,1.00058) (4.57e-007,1.00058) (4.58e-007,1.00058) (4.59e-007,1.00058)
+ (4.6e-007,1.00058) (4.61e-007,1.00058) (4.62e-007,1.00058) (4.63e-007,1.00058) (4.64e-007,1.00058)
+ (4.65e-007,1.00058) (4.66e-007,1.00058) (4.67e-007,1.00058) (4.68e-007,1.00058) (4.69e-007,1.00058)
+ (4.7e-007,1.00058) (4.71e-007,1.00058) (4.72e-007,1.00058) (4.73e-007,1.00058) (4.74e-007,1.00058)
+ (4.75e-007,1.00058) (4.76e-007,1.00058) (4.77e-007,1.00058) (4.78e-007,1.00058) (4.79e-007,1.00058)
+ (4.8e-007,1.00058) (4.81e-007,1.00058) (4.82e-007,1.00058) (4.83e-007,1.00058) (4.84e-007,1.00058)
+ (4.85e-007,1.00058) (4.86e-007,1.00058) (4.87e-007,1.00058) (4.88e-007,1.00058) (4.89e-007,1.00058)
+ (4.9e-007,1.00058) (4.91e-007,1.00058) (4.92e-007,1.00058) (4.93e-007,1.00058) (4.94e-007,1.00058)
+ (4.95e-007,1.00058) (4.96e-007,1.00058) (4.97e-007,1.00058) (4.98e-007,1.00058) (4.99e-007,1.00058)
+ (5e-007,1.00058) (5.01e-007,1.00058) (5.02e-007,1.00058) (5.03e-007,1.00058) (5.04e-007,1.00058)
+ (5.05e-007,1.00058) (5.06e-007,1.00058) (5.07e-007,1.00058) (5.08e-007,1.00058) (5.09e-007,1.00058)
+ (5.1e-007,1.00058) (5.11e-007,1.00058) (5.12e-007,1.00058) (5.13e-007,1.00058) (5.14e-007,1.00058)
+ (5.15e-007,1.00058) (5.16e-007,1.00058) (5.17e-007,1.00058) (5.18e-007,1.00058) (5.19e-007,1.00058)
+ (5.2e-007,1.00058) (5.21e-007,1.00058) (5.22e-007,1.00058) (5.23e-007,1.00058) (5.24e-007,1.00058)
+ (5.25e-007,1.00058) (5.26e-007,1.00058) (5.27e-007,1.00058) (5.28e-007,1.00058) (5.29e-007,1.00058)
+ (5.3e-007,1.00058) (5.31e-007,1.00058) (5.32e-007,1.00058) (5.33e-007,1.00058) (5.34e-007,1.00058)
+ (5.35e-007,1.00058) (5.36e-007,1.00058) (5.37e-007,1.00058) (5.38e-007,1.00058) (5.39e-007,1.00058)
+ (5.4e-007,1.00058) (5.41e-007,1.00058) (5.42e-007,1.00058) (5.43e-007,1.00058) (5.44e-007,1.00058)
+ (5.45e-007,1.00058) (5.46e-007,1.00058) (5.47e-007,1.00058) (5.48e-007,1.00058) (5.49e-007,1.00058)
+ (5.5e-007,1.00058) (5.51e-007,1.00058) (5.52e-007,1.00058) (5.53e-007,1.00058) (5.54e-007,1.00058)
+ (5.55e-007,1.00058) (5.56e-007,1.00058) (5.57e-007,1.00058) (5.58e-007,1.00058) (5.59e-007,1.00058)
+ (5.6e-007,1.00058) (5.61e-007,1.00058) (5.62e-007,1.00058) (5.63e-007,1.00058) (5.64e-007,1.00058)
+ (5.65e-007,1.00058) (5.66e-007,1.00058) (5.67e-007,1.00058) (5.68e-007,1.00058) (5.69e-007,1.00058)
+ (5.7e-007,1.00058) (5.71e-007,1.00058) (5.72e-007,1.00058) (5.73e-007,1.00058) (5.74e-007,1.00058)
+ (5.75e-007,1.00058) (5.76e-007,1.00058) (5.77e-007,1.00058) (5.78e-007,1.00058) (5.79e-007,1.00058)
+ (5.8e-007,1.00058) (5.81e-007,1.00058) (5.82e-007,1.00058) (5.83e-007,1.00058) (5.84e-007,1.00058)
+ (5.85e-007,1.00058) (5.86e-007,1.00058) (5.87e-007,1.00058) (5.88e-007,1.00058) (5.89e-007,1.00058)
+ (5.9e-007,1.00058) (5.91e-007,1.00058) (5.92e-007,1.00058) (5.93e-007,1.00058) (5.94e-007,1.00058)
+ (5.95e-007,1.00058) (5.96e-007,1.00058) (5.97e-007,1.00058) (5.98e-007,1.00058) (5.99e-007,1.00058)
+ (6e-007,1.00058) (6.01e-007,1.00058) (6.02e-007,1.00058) (6.03e-007,1.00058) (6.04e-007,1.00058)
+ (6.05e-007,1.00058) (6.06e-007,1.00058) (6.07e-007,1.00058) (6.08e-007,1.00058) (6.09e-007,1.00058)
+ (6.1e-007,1.00058) (6.11e-007,1.00058) (6.12e-007,1.00058) (6.13e-007,1.00058) (6.14e-007,1.00058)
+ (6.15e-007,1.00058) (6.16e-007,1.00058) (6.17e-007,1.00058) (6.18e-007,1.00058) (6.19e-007,1.00058)
+ (6.2e-007,1.00058) (6.21e-007,1.00058) (6.22e-007,1.00058) (6.23e-007,1.00058) (6.24e-007,1.00058)
+ (6.25e-007,1.00058) (6.26e-007,1.00058) (6.27e-007,1.00058) (6.28e-007,1.00058) (6.29e-007,1.00058)
+ (6.3e-007,1.00058) (6.31e-007,1.00058) (6.32e-007,1.00058) (6.33e-007,1.00058) (6.34e-007,1.00058)
+ (6.35e-007,1.00058) (6.36e-007,1.00058) (6.37e-007,1.00058) (6.38e-007,1.00058) (6.39e-007,1.00058)
+ (6.4e-007,1.00058) (6.41e-007,1.00058) (6.42e-007,1.00058) (6.43e-007,1.00058) (6.44e-007,1.00058)
+ (6.45e-007,1.00058) (6.46e-007,1.00058) (6.47e-007,1.00058) (6.48e-007,1.00058) (6.49e-007,1.00058)
+ (6.5e-007,1.00058) (6.51e-007,1.00058) (6.52e-007,1.00058) (6.53e-007,1.00058) (6.54e-007,1.00058)
+ (6.55e-007,1.00058) (6.56e-007,1.00058) (6.57e-007,1.00058) (6.58e-007,1.00058) (6.59e-007,1.00058)
+ (6.6e-007,1.00058) (6.61e-007,1.00058) (6.62e-007,1.00058) (6.63e-007,1.00058) (6.64e-007,1.00058)
+ (6.65e-007,1.00058) (6.66e-007,1.00058) (6.67e-007,1.00058) (6.68e-007,1.00058) (6.69e-007,1.00058)
+ (6.7e-007,1.00058) (6.71e-007,1.00058) (6.72e-007,1.00058) (6.73e-007,1.00058) (6.74e-007,1.00058)
+ (6.75e-007,1.00058) (6.76e-007,1.00058) (6.77e-007,1.00058) (6.78e-007,1.00058) (6.79e-007,1.00058)
+ (6.8e-007,1.00058) (6.81e-007,1.00058) (6.82e-007,1.00058) (6.83e-007,1.00058) (6.84e-007,1.00058)
+ (6.85e-007,1.00058) (6.86e-007,1.00058) (6.87e-007,1.00058) (6.88e-007,1.00058) (6.89e-007,1.00058)
+ (6.9e-007,1.00058) (6.91e-007,1.00058) (6.92e-007,1.00058) (6.93e-007,1.00058) (6.94e-007,1.00058)
+ (6.95e-007,1.00058) (6.96e-007,1.00058) (6.97e-007,1.00058) (6.98e-007,1.00058) (6.99e-007,1.00058)
+ (7e-007,1.00058) (7.01e-007,1.00058) (7.02e-007,1.00058) (7.03e-007,1.00058) (7.04e-007,1.00058)
+ (7.05e-007,1.00058) (7.06e-007,1.00058) (7.07e-007,1.00058) (7.08e-007,1.00058) (7.09e-007,1.00058)
+ (7.1e-007,1.00058) (7.11e-007,1.00058) (7.12e-007,1.00058) (7.13e-007,1.00058) (7.14e-007,1.00058)
+ (7.15e-007,1.00058) (7.16e-007,1.00058) (7.17e-007,1.00058) (7.18e-007,1.00058) (7.19e-007,1.00058)
+ (7.2e-007,1.00058) (7.21e-007,1.00058) (7.22e-007,1.00058) (7.23e-007,1.00058) (7.24e-007,1.00058)
+ (7.25e-007,1.00058) (7.26e-007,1.00058) (7.27e-007,1.00058) (7.28e-007,1.00058) (7.29e-007,1.00058)
+ (7.3e-007,1.00058) (7.31e-007,1.00058) (7.32e-007,1.00058) (7.33e-007,1.00058) (7.34e-007,1.00058)
+ (7.35e-007,1.00058) (7.36e-007,1.00058) (7.37e-007,1.00058) (7.38e-007,1.00058) (7.39e-007,1.00058)
+ (7.4e-007,1.00058) (7.41e-007,1.00058) (7.42e-007,1.00058) (7.43e-007,1.00058) (7.44e-007,1.00058)
+ (7.45e-007,1.00058) (7.46e-007,1.00058) (7.47e-007,1.00058) (7.48e-007,1.00058) (7.49e-007,1.00058)
+ (7.5e-007,1.00058) (7.51e-007,1.00058) (7.52e-007,1.00058) (7.53e-007,1.00058) (7.54e-007,1.00058)
+ (7.55e-007,1.00058) (7.56e-007,1.00058) (7.57e-007,1.00058) (7.58e-007,1.00058) (7.59e-007,1.00058)
+ (7.6e-007,1.00058) (7.61e-007,1.00058) (7.62e-007,1.00058) (7.63e-007,1.00058) (7.64e-007,1.00058)
+ (7.65e-007,1.00058) (7.66e-007,1.00058) (7.67e-007,1.00058) (7.68e-007,1.00058) (7.69e-007,1.00058)
+ (7.7e-007,1.00058) (7.71e-007,1.00058) (7.72e-007,1.00058) (7.73e-007,1.00058) (7.74e-007,1.00058)
+ (7.75e-007,1.00058) (7.76e-007,1.00058) (7.77e-007,1.00058) (7.78e-007,1.00058) (7.79e-007,1.00058)
+ (7.8e-007,1.00058) (7.81e-007,1.00058) (7.82e-007,1.00058) (7.83e-007,1.00058) (7.84e-007,1.00058)
+ (7.85e-007,1.00058) (7.86e-007,1.00058) (7.87e-007,1.00058) (7.88e-007,1.00058) (7.89e-007,1.00058)
+ (7.9e-007,1.00058) (7.91e-007,1.00058) (7.92e-007,1.00058) (7.93e-007,1.00058) (7.94e-007,1.00058)
+ (7.95e-007,1.00058) (7.96e-007,1.00058) (7.97e-007,1.00058) (7.98e-007,1.00058) (7.99e-007,1.00058)
+ (8e-007,1.00058)
.ENDS GPIOPADW100M_M2_PAD__TYP_VKUR


.SUBCKT GPIOPADW100M_M2_PAD__TYP_VKDR TRIG 14 IN EN
.model trigger slew(rise_slope=1 fall_slope=1)
Btrigger /trga 0 v={(V(TRIG)>=1.155)*(V(EN)>=1.155)}
Atrigger /trga /trgb trigger
BKDR 14 0 V=PWL v(/trgb)
+ (0,1.00011) (1e-009,1.00011) (2e-009,1.00011) (3e-009,1.00011) (4e-009,1.00011)
+ (5e-009,1.00011) (6e-009,0.428687) (7e-009,0.00462257) (8e-009,0.00174017) (9e-009,0.000846545)
+ (1e-008,0.000700214) (1.1e-008,0.000600434) (1.2e-008,0.000549987) (1.3e-008,0.000538773) (1.4e-008,0.000514579)
+ (1.5e-008,0.000476104) (1.6e-008,0.000420646) (1.7e-008,0.000359911) (1.8e-008,0.000303693) (1.9e-008,0.000273054)
+ (2e-008,0.000256833) (2.1e-008,0.000262689) (2.2e-008,0.000265737) (2.3e-008,0.000267573) (2.4e-008,0.000269317)
+ (2.5e-008,0.000272404) (2.6e-008,0.0002732) (2.7e-008,0.000272822) (2.8e-008,0.000271698) (2.9e-008,0.000270567)
+ (3e-008,0.000268976) (3.1e-008,0.000267396) (3.2e-008,0.000265514) (3.3e-008,0.000263629) (3.4e-008,0.00026155)
+ (3.5e-008,0.000259468) (3.6e-008,0.000257267) (3.7e-008,0.000255062) (3.8e-008,0.000252782) (3.9e-008,0.000250501)
+ (4e-008,0.000248169) (4.1e-008,0.000245835) (4.2e-008,0.000243472) (4.3e-008,0.000241107) (4.4e-008,0.00023871)
+ (4.5e-008,0.000236315) (4.6e-008,0.000233918) (4.7e-008,0.000231521) (4.8e-008,0.000229288) (4.9e-008,0.000227394)
+ (5e-008,0.000225485) (5.1e-008,0.000223576) (5.2e-008,0.000222294) (5.3e-008,0.000222301) (5.4e-008,0.000222301)
+ (5.5e-008,0.000222301) (5.6e-008,0.000222302) (5.7e-008,0.000222303) (5.8e-008,0.000222303) (5.9e-008,0.000222303)
+ (6e-008,0.000222303) (6.1e-008,0.000222304) (6.2e-008,0.000222304) (6.3e-008,0.000222304) (6.4e-008,0.000222304)
+ (6.5e-008,0.000222304) (6.6e-008,0.000222304) (6.7e-008,0.000222305) (6.8e-008,0.000222305) (6.9e-008,0.000222305)
+ (7e-008,0.000222305) (7.1e-008,0.000222306) (7.2e-008,0.000222306) (7.3e-008,0.000222306) (7.4e-008,0.000222306)
+ (7.5e-008,0.000222306) (7.6e-008,0.000222307) (7.7e-008,0.000222307) (7.8e-008,0.000222307) (7.9e-008,0.000222307)
+ (8e-008,0.000222307) (8.1e-008,0.000222308) (8.2e-008,0.000222308) (8.3e-008,0.000222308) (8.4e-008,0.000222308)
+ (8.5e-008,0.000222308) (8.6e-008,0.000222309) (8.7e-008,0.000222309) (8.8e-008,0.000222309) (8.9e-008,0.000222309)
+ (9e-008,0.000222309) (9.1e-008,0.00022231) (9.2e-008,0.00022231) (9.3e-008,0.00022231) (9.4e-008,0.00022231)
+ (9.5e-008,0.00022231) (9.6e-008,0.000222311) (9.7e-008,0.000222311) (9.8e-008,0.000222311) (9.9e-008,0.000222311)
+ (1e-007,0.000222311) (1.01e-007,0.000222311) (1.02e-007,0.000222312) (1.03e-007,0.000222312) (1.04e-007,0.000222312)
+ (1.05e-007,0.000222312) (1.06e-007,0.000222312) (1.07e-007,0.000222313) (1.08e-007,0.000222313) (1.09e-007,0.000222313)
+ (1.1e-007,0.000222313) (1.11e-007,0.000222313) (1.12e-007,0.000222314) (1.13e-007,0.000222314) (1.14e-007,0.000222314)
+ (1.15e-007,0.000222314) (1.16e-007,0.000222314) (1.17e-007,0.000222315) (1.18e-007,0.000222315) (1.19e-007,0.000222315)
+ (1.2e-007,0.000222315) (1.21e-007,0.000222315) (1.22e-007,0.000222316) (1.23e-007,0.000222316) (1.24e-007,0.000222316)
+ (1.25e-007,0.000222316) (1.26e-007,0.000222316) (1.27e-007,0.000222317) (1.28e-007,0.000222317) (1.29e-007,0.000222317)
+ (1.3e-007,0.000222317) (1.31e-007,0.000222317) (1.32e-007,0.000222318) (1.33e-007,0.000222318) (1.34e-007,0.000222318)
+ (1.35e-007,0.000222318) (1.36e-007,0.000222318) (1.37e-007,0.000222319) (1.38e-007,0.000222319) (1.39e-007,0.000222319)
+ (1.4e-007,0.000222319) (1.41e-007,0.000222319) (1.42e-007,0.00022232) (1.43e-007,0.00022232) (1.44e-007,0.00022232)
+ (1.45e-007,0.00022232) (1.46e-007,0.000222321) (1.47e-007,0.000222321) (1.48e-007,0.000222321) (1.49e-007,0.000222321)
+ (1.5e-007,0.000222321) (1.51e-007,0.000222321) (1.52e-007,0.000222321) (1.53e-007,0.000222321) (1.54e-007,0.000222321)
+ (1.55e-007,0.000222321) (1.56e-007,0.000222321) (1.57e-007,0.000222321) (1.58e-007,0.000222321) (1.59e-007,0.000222321)
+ (1.6e-007,0.000222321) (1.61e-007,0.000222321) (1.62e-007,0.000222321) (1.63e-007,0.000222321) (1.64e-007,0.000222321)
+ (1.65e-007,0.000222321) (1.66e-007,0.000222321) (1.67e-007,0.000222321) (1.68e-007,0.000222321) (1.69e-007,0.000222321)
+ (1.7e-007,0.000222321) (1.71e-007,0.000222321) (1.72e-007,0.000222321) (1.73e-007,0.000222321) (1.74e-007,0.000222321)
+ (1.75e-007,0.000222321) (1.76e-007,0.000222321) (1.77e-007,0.000222321) (1.78e-007,0.000222321) (1.79e-007,0.000222321)