*
* Ver:          4.2
* Name:         sam0d20_3t64.ibs
* Rev:          1.0
* Date:         6-MAY-2013 17:22:27
* Source:       By GENIBIS V3.2b - GENerate chip IBIS model - 29-APR-2013
* Notes:        Property of ATMEL Corporation
* Disclaimer:
*               (C) Copyright ATMEL Nantes 2002-2013
*               Atmel Nantes makes no warranty for the use of its products, other than
*               those expressly contained in the Company's standard warranty which is detailed
*               in Atmel's Terms and Conditions located on the Company's web site. The Company
*               assumes no responsability for any errors which may appear in this document.
*               The user is granted this license only to use the IBIS model and is not granted
*               rights to sell, load, rent, lease or license the IBIS model in whole or in part,
*               or in modified form to anyone other than user. User may modify the IBIS model
*               to suit its specific applications but rights to derivative works and such
*               modifications shall belong to Atmel Nantes.
*               This IBIS model is provided on an \"AS IS\" basis and Atmel Nantes makes
*               absolutely no warranty with respect to the information contained herein.
* Copyright:    Copyright (c) 2002-2013 by ATMEL Nantes SA
*
* Component:    SAM0D20_TQFP64
* Manufacturer: ATMEL Nantes SAS
*
*
* Output Buffer Models:
*    GPIOPADW100M_M2_PAD__1_TYP
*
* Total: 1 Pin Models Created
*






















.SUBCKT GPIOPADW100M_M2_PAD__TYP_PULLUP 1 2 3 4
R1 1 2 1
G1 2 1 TABLE {V(3,4)} =
+-3.3,0.0882382
+-3.27273,0.0877768
+-2.94545,0.0823994
+-2.61818,0.0769864
+-2.29091,0.0713311
+-1.96364,0.0652092
+-1.63636,0.0583658
+-1.30909,0.0504875
+-0.981818,0.0411499
+-0.654546,0.0297168
+-0.327273,0.0152402
+-0.3,0.0139594
+-0,1e-015
+0.0515625,-0.00233623
+0.103125,-0.00462304
+0.154687,-0.00686028
+0.20625,-0.00904781
+0.257812,-0.0111855
+0.309375,-0.0132731
+0.360937,-0.0153106
+0.4125,-0.0172978
+0.464062,-0.0192346
+0.515625,-0.0211207
+0.567187,-0.0229561
+0.61875,-0.0247405
+0.670312,-0.0264739
+0.721875,-0.0281561
+0.773438,-0.029787
+0.825,-0.0313663
+0.876562,-0.0328939
+0.928125,-0.0343698
+0.979687,-0.0357936
+1.03125,-0.0371654
+1.08281,-0.0384849
+1.13437,-0.039752
+1.18594,-0.0409665
+1.2375,-0.0421284
+1.28906,-0.0432374
+1.34062,-0.0442936
+1.39219,-0.0452967
+1.44375,-0.0462467
+1.49531,-0.0471436
+1.54687,-0.0479874
+1.59844,-0.0487782
+1.65,-0.0495164
+1.70156,-0.0502026
+1.75312,-0.0508378
+1.80469,-0.0514237
+1.85625,-0.0519629
+1.90781,-0.0524586
+1.95937,-0.0529152
+2.01094,-0.0533367
+2.0625,-0.0537275
+2.11406,-0.054091
+2.16562,-0.0544305
+2.21719,-0.0547488
+2.26875,-0.055048
+2.32031,-0.0553301
+2.37187,-0.0555969
+2.42344,-0.0558498
+2.475,-0.0560902
+2.52656,-0.0563192
+2.57812,-0.0565377
+2.62969,-0.0567466
+2.68125,-0.0569468
+2.73281,-0.057139
+2.78437,-0.0573237
+2.83594,-0.0575016
+2.8875,-0.0576731
+2.93906,-0.0578387
+2.99062,-0.0579989
+3.04219,-0.058154
+3.09375,-0.0583043
+3.14531,-0.0584502
+3.19687,-0.058592
+3.24844,-0.0587298
+3.3,-0.0588641
+3.75455,-0.0599199
+4.20909,-0.0608122
+4.66364,-0.0616078
+5.11818,-0.0623788
+5.57273,-0.0632476
+6.02727,-0.0644233
+6.48182,-0.0662141
+6.6,-0.0669429
.ENDS GPIOPADW100M_M2_PAD__TYP_PULLUP

.SUBCKT GPIOPADW100M_M2_PAD__TYP_PULLDOWN 1 2 3 4
R1 1 2 1
G1 2 1 TABLE {V(3,4)} =
+-3.3,-0.119039
+-3.18182,-0.116731
+-2.72727,-0.109277
+-2.27273,-0.101922
+-1.81818,-0.0933315
+-1.36364,-0.0822545
+-0.909091,-0.0662772
+-0.454545,-0.0385898
+0,-1.23442e-010
+0.0515625,0.00461651
+0.103125,0.00908778
+0.154688,0.0134157
+0.20625,0.0176021
+0.257812,0.0216488
+0.309375,0.0255575
+0.360938,0.02933
+0.4125,0.0329679
+0.464062,0.036473
+0.515625,0.0398469
+0.567187,0.0430911
+0.61875,0.0462071
+0.670312,0.0491965
+0.721875,0.0520604
+0.773438,0.0548002
+0.825,0.0574168
+0.876563,0.0599108
+0.928125,0.0622823
+0.979688,0.0645302
+1.03125,0.0666518
+1.08281,0.0686414
+1.13437,0.0704885
+1.18594,0.0721773
+1.2375,0.0736888
+1.28906,0.0750092
+1.34062,0.0761389
+1.39219,0.0770942
+1.44375,0.0779003
+1.49531,0.078584
+1.54688,0.0791689
+1.59844,0.0796744
+1.65,0.0801159
+1.70156,0.0805053
+1.75313,0.0808522
+1.80469,0.0811637
+1.85625,0.0814458
+1.90781,0.081703
+1.95938,0.0819391
+2.01094,0.0821572
+2.0625,0.0823596
+2.11406,0.0825486
+2.16562,0.0827257
+2.21719,0.0828924
+2.26875,0.08305
+2.32031,0.0831995
+2.37188,0.0833418
+2.42344,0.0834775
+2.475,0.0836075
+2.52656,0.0837322
+2.57812,0.0838522
+2.62969,0.0839679
+2.68125,0.0840796
+2.73281,0.0841879
+2.78437,0.0842929
+2.83594,0.0843949
+2.8875,0.0844943
+2.93906,0.0845912
+2.99063,0.084686
+3.04219,0.0847789
+3.09375,0.0848701
+3.14531,0.0849599
+3.19687,0.0850486
+3.24844,0.0851364
+3.3,0.0852237
+3.6,0.0857417
+3.62727,0.0857917
+3.95455,0.086492
+4.28182,0.0875535
+4.60909,0.0893141
+4.93636,0.0922094
+5.26364,0.0967482
+5.59091,0.103481
+5.91818,0.112968
+6.24545,0.125757
+6.57273,0.142365
+6.6,0.144106
.ENDS GPIOPADW100M_M2_PAD__TYP_PULLDOWN

.SUBCKT GPIOPADW100M_M2_PAD__TYP_POWER_CLAMP 1 2 3 4
G1 1 2 TABLE {V(3,4)} =
+-3.3,1.75054
+-3.27273,1.72918
+-2.94545,1.47318
+-2.61818,1.21746
+-2.29091,0.962024
+-1.96364,0.706944
+-1.63636,0.465668
+-1.30909,0.280298
+-0.981818,0.0980621
+-0.654546,0.000962992
+-0.327273,1.3545e-006
+-0.3,5.68321e-007
+-0,1e-015
+0.0515625,1e-015
+0.103125,1e-015
+0.154687,1e-015
+0.20625,1e-015
+0.257812,1e-015
+0.309375,1e-015
+0.360937,1e-015
+0.4125,1e-015
+0.464062,1e-015
+0.515625,1e-015
+0.567187,1e-015
+0.61875,1e-015
+0.670312,1e-015
+0.721875,1e-015
+0.773438,1e-015
+0.825,1e-015
+0.876562,1e-015
+0.928125,1e-015
+0.979687,1e-015
+1.03125,1e-015
+1.08281,1e-015
+1.13437,1e-015
+1.18594,1e-015
+1.2375,1e-015
+1.28906,1e-015
+1.34062,1e-015
+1.39219,1e-015
+1.44375,1e-015
+1.49531,1e-015
+1.54687,1e-015
+1.59844,1e-015
+1.65,1e-015
+1.70156,1e-015
+1.75312,1e-015
+1.80469,1e-015
+1.85625,1e-015
+1.90781,1e-015
+1.95937,1e-015
+2.01094,1e-015
+2.0625,1e-015
+2.11406,1e-015
+2.16562,1e-015
+2.21719,1e-015
+2.26875,1e-015
+2.32031,1e-015
+2.37187,1e-015
+2.42344,1e-015
+2.475,1e-015
+2.52656,1e-015
+2.57812,1e-015
+2.62969,1e-015
+2.68125,1e-015
+2.73281,1e-015
+2.78437,1e-015
+2.83594,1e-015
+2.8875,1e-015
+2.93906,1e-015
+2.99062,1e-015
+3.04219,1e-015
+3.09375,1e-015
+3.14531,1e-015
+3.19687,1e-015
+3.24844,1e-015
+3.3,1e-015
+3.75455,1e-015
+4.20909,1e-015
+4.66364,1e-015
+5.11818,1e-015
+5.57273,1e-015
+6.02727,1e-015
+6.48182,1e-015
+6.6,1e-015
.ENDS GPIOPADW100M_M2_PAD__TYP_POWER_CLAMP

.SUBCKT GPIOPADW100M_M2_PAD__TYP_GND_CLAMP 1 2 3 4
G1 1 2 TABLE {V(3,4)} =
+-3.3,-2.63379
+-3.18182,-2.50764
+-2.72727,-2.02318
+-2.27273,-1.53882
+-1.81818,-1.05449
+-1.36364,-0.570775
+-0.909091,-0.0908497
+-0.454545,-2.06721e-005
+0,-2.78293e-010
+0.0515625,-2.66358e-010
+0.103125,-2.58786e-010
+0.154688,-2.51703e-010
+0.20625,-2.447e-010
+0.257812,-2.37719e-010
+0.309375,-2.30747e-010
+0.360938,-2.2378e-010
+0.4125,-2.16815e-010
+0.464062,-2.09851e-010
+0.515625,-2.02888e-010
+0.567187,-1.95924e-010
+0.61875,-1.8896e-010
+0.670312,-1.81994e-010
+0.721875,-1.75027e-010
+0.773438,-1.68058e-010
+0.825,-1.61086e-010
+0.876563,-1.54112e-010
+0.928125,-1.47136e-010
+0.979688,-1.40156e-010
+1.03125,-1.33173e-010
+1.08281,-1.26187e-010
+1.13437,-1.19197e-010
+1.18594,-1.12204e-010
+1.2375,-1.05206e-010
+1.28906,-9.82043e-011
+1.34062,-9.11981e-011
+1.39219,-8.41873e-011
+1.44375,-7.71715e-011
+1.49531,-7.01507e-011
+1.54688,-6.31246e-011
+1.59844,-5.6093e-011
+1.65,-4.90556e-011
+1.70156,-4.20122e-011
+1.75313,-3.49626e-011
+1.80469,-2.79064e-011
+1.85625,-2.08435e-011
+1.90781,-1.37735e-011
+1.95938,-6.69624e-012
+2.01094,3.88667e-013
+2.0625,7.4815e-012
+2.11406,1.45826e-011
+2.16562,2.16923e-011
+2.21719,2.8811e-011
+2.26875,3.5939e-011
+2.32031,4.30768e-011
+2.37188,5.02248e-011
+2.42344,5.73835e-011
+2.475,6.45534e-011
+2.52656,7.17351e-011
+2.57812,7.89291e-011
+2.62969,8.61361e-011
+2.68125,9.33569e-011
+2.73281,1.00592e-010
+2.78437,1.07843e-010
+2.83594,1.1511e-010
+2.8875,1.22394e-010
+2.93906,1.29698e-010
+2.99063,1.37022e-010
+3.04219,1.44369e-010
+3.09375,1.51745e-010
+3.14531,1.59161e-010
+3.19687,1.66678e-010
+3.24844,1.74845e-010
+3.3,1.90645e-010
+3.6,1e-015
+3.62727,1e-015
+3.95455,1e-015
+4.28182,1e-015
+4.60909,1e-015
+4.93636,1e-015
+5.26364,1e-015
+5.59091,1e-015
+5.91818,1e-015
+6.24545,1e-015
+6.57273,1e-015
+6.6,1e-015
.ENDS GPIOPADW100M_M2_PAD__TYP_GND_CLAMP


.SUBCKT GPIOPADW100M_M2_PAD__1_TYP IN EN OUT VCC VEE
* Component:    SAM0D20_TQFP48
* Manufacturer: ATMEL Nantes SAS
* Model:        gpiopadw100m_M2_pad_
* Pin:          1
* Requires external VCC= 3.3
* Requires external VEE= 0
C1T TRIG 0 .1P
* Polarity = Inverting
R1T VTPWR TRIG {(V(IN)>=0.99)*1E12+1}
R2T TRIG 0 {(V(IN)<2.31)*1E12+1}
V2T VTPWR 0 2.541
C_COMP DIE VEE 1.24002e-012
R_COMP DIE VEE 1e+011
C1TE EN1 VEE .1P
* Enable = ACTIVE-LOW
R1TE VTPWR EN1 {(V(EN)>=0.998)*1E12+1}
R2TE EN1 0 {(V(EN)<2.31)*1E12+1}
G1 DIE VEE VALUE = {(V(IPD)*(V(14)*(V(TRIG)>=1.155)+V(15)*(V(TRIG)<1.155)))*(V(EN1)>=1.155)}
G2 DIE VCC VALUE = {(V(IPU)*(V(10)*(V(TRIG)>=1.155)+V(11)*(V(TRIG)<1.155)))*(V(EN1)>=1.155)}
L_PIN DIE 12 4.16e-009
R_PIN OUT 12 0.14376
C_PIN 0 OUT 2.8381e-013
*** COMMON TO ALL PINS IN THE PACKAGE
XE4 IPU 0 VCC DIE GPIOPADW100M_M2_PAD__TYP_PULLUP
XE5 IPD 0 DIE VEE GPIOPADW100M_M2_PAD__TYP_PULLDOWN
XGC DIE VEE DIE VEE GPIOPADW100M_M2_PAD__TYP_GND_CLAMP
XPC DIE VCC VCC DIE GPIOPADW100M_M2_PAD__TYP_POWER_CLAMP
*** PWLs
XVKUR TRIG 10 IN EN1 GPIOPADW100M_M2_PAD__TYP_VKUR
XVKDR TRIG 14 IN EN1 GPIOPADW100M_M2_PAD__TYP_VKDR
XVKUF TRIG 11 IN EN1 GPIOPADW100M_M2_PAD__TYP_VKUF
XVKDF TRIG 15 IN EN1 GPIOPADW100M_M2_PAD__TYP_VKDF
.ENDS GPIOPADW100M_M2_PAD__1_TYP




*
* Ver:          3.2
* Name:         sam4s8_lq64.ibs
* Rev:          1.0
* Date:         Mar 07 2012
*
* Component:    SAM4S16_LQ64
* Manufacturer: ATMEL Corporation
*
*
* Output Buffer Models:
*    B3HA40BP2RUARM3V3_3_TYP
*
* Total: 1 Pin Models Created
*

.SUBCKT B3HA40BP2RUARM3V3_TYP_PULLUP 1 2 3 4
R1 1 2 1
G1 2 1 TABLE {V(3,4)} =
+-3.3,0.00045013
+-3.0192,0.000559205
+-3.01785,0.000559855
+-2.4612,0.00107452
+-2.3232,0.00138153
+-2.0148,0.00285955
+-2.01465,0.00286051
+-1.7382,0.00450941
+-1.4817,0.00555099
+-1.3812,0.00563342
+-0.825,0.00552877
+-0.6831,0.00564146
+-0.5532,0.00559639
+-0.5424,0.00557696
+-0.3993,0.0048609
+-0.3912,0.00478647
+-0.39015,0.00477657
+-0.3894,0.0047695
+-0.3759,0.00463593
+-0.3732,0.00460807
+-0.2616,0.00327707
+-0.1194,0.00148736
+-0.1188,0.00147984
+-0.00255,3.15908e-005
+-0.0024,2.97322e-005
+0,-6.64766e-009
+0.0003,-3.72288e-006
+0.0012,-1.48716e-005
+0.02025,-0.000250547
+0.1632,-0.00199914
+0.30525,-0.00370068
+0.4455,-0.00534355
+0.534,-0.00636033
+0.5589,-0.00664354
+0.58455,-0.00693394
+0.72705,-0.00852185
+0.8688,-0.0100568
+1.0098,-0.0115366
+1.1532,-0.0129905
+1.2396,-0.0138402
+1.24005,-0.0138445
+1.29135,-0.0143391
+1.3056,-0.0144751
+1.3068,-0.0144866
+1.43385,-0.0156726
+1.5744,-0.016926
+1.716,-0.018121
+1.78725,-0.0186941
+1.8585,-0.0192466
+1.9236,-0.0197318
+1.9965,-0.0202502
+2.1384,-0.0211705
+2.1396,-0.0211777
+2.2671,-0.0218873
+2.28,-0.0219527
+2.31165,-0.0221085
+2.3124,-0.0221121
+2.4222,-0.0226026
+2.4564,-0.0227412
+2.457,-0.0227436
+2.4585,-0.0227495
+2.5641,-0.0231399
+2.7048,-0.0235892
+2.8446,-0.0239734
+2.8704,-0.0240387
+2.9856,-0.0243124
+3.12675,-0.0246134
+3.26925,-0.0248862
+3.27,-0.0248875
+3.2703,-0.0248881
+3.3996,-0.0251131
+3.40035,-0.0251143
+3.41175,-0.0251333
+3.4602,-0.0252122
+3.5508,-0.0253499
+3.6912,-0.0253789
+3.83355,-0.0243165
+3.84495,-0.0241779
+3.9504,-0.0226827
+3.9756,-0.0222842
+4.116,-0.0198891
+4.1184,-0.0198462
+4.12425,-0.0197414
+4.125,-0.0197279
+4.1268,-0.0196956
+4.1271,-0.0196902
+4.338,-0.0157352
+4.3392,-0.0157119
+4.5624,-0.0112874
+4.64295,-0.00972553
+4.6662,-0.00930963
+4.8477,-0.00716117
+4.84815,-0.00715788
+5.01915,-0.00621908
+5.1744,-0.00564811
+5.5668,-0.00447056
+5.5671,-0.00446965
+5.9124,-0.0033696
+6.5964,-0.00145454
+6.5967,-0.00145396
.ENDS B3HA40BP2RUARM3V3_TYP_PULLUP

.SUBCKT B3HA40BP2RUARM3V3_TYP_PULLDOWN 1 2 3 4
R1 1 2 1
G1 2 1 TABLE {V(3,4)} =
+-3.3,-0.00098761
+-1.8579,-0.00365639
+-1.5972,-0.00393406
+-1.2552,-0.004384
+-1.2177,-0.0044522
+-0.825,-0.00570212
+-0.82335,-0.00570903
+-0.6831,-0.00623458
+-0.5496,-0.00643704
+-0.54405,-0.00643362
+-0.5424,-0.00643231
+-0.3993,-0.00570135
+-0.39585,-0.00566561
+-0.3948,-0.00565451
+-0.3876,-0.0055769
+-0.3873,-0.0055736
+-0.30465,-0.00450978
+-0.2616,-0.00389267
+-0.1194,-0.00179102
+-0.1188,-0.00178207
+-0.00255,-3.84695e-005
+-0.0024,-3.6207e-005
+0,-7.59406e-009
+0.0003,4.51877e-006
+0.0012,1.80979e-005
+0.02025,0.000304981
+0.1632,0.0024282
+0.30525,0.00448498
+0.4455,0.00646149
+0.4548,0.00659058
+0.5247,0.0075529
+0.58455,0.00836548
+0.72705,0.0102566
+0.8688,0.0120747
+1.0098,0.0138177
+1.0434,0.0142231
+1.0452,0.0142447
+1.1532,0.0155201
+1.2576,0.016713
+1.26,0.01674
+1.29135,0.01709
+1.43385,0.0186333
+1.5744,0.0200761
+1.65615,0.0208773
+1.716,0.0214454
+1.8585,0.0227329
+1.9272,0.0233193
+1.9965,0.0238869
+2.1384,0.0249682
+2.22045,0.0255376
+2.2209,0.0255406
+2.2224,0.0255506
+2.28,0.0259206
+2.2803,0.0259225
+2.3133,0.026122
+2.4222,0.026705
+2.514,0.0270937
+2.5146,0.0270959
+2.51685,0.0271042
+2.5641,0.0272662
+2.7048,0.0276316
+2.8128,0.0278299
+2.8446,0.0278791
+2.9856,0.0280626
+3.0498,0.0281319
+3.12675,0.0282064
+3.144,0.028222
+3.1449,0.0282228
+3.26925,0.0283253
+3.2721,0.0283275
+3.2736,0.0283286
+3.41175,0.0284261
+3.5286,0.028498
+3.5508,0.0285099
+3.6912,0.0284411
+3.83355,0.0274414
+3.9432,0.0261406
+3.9756,0.0257077
+4.116,0.0236668
+4.1184,0.0236301
+4.12425,0.0235403
+4.125,0.0235288
+4.1268,0.0235011
+4.1271,0.0234965
+4.38075,0.0193899
+4.44,0.0183956
+4.4406,0.0183855
+4.6002,0.0157008
+4.602,0.0156705
+4.8246,0.0119803
+5.124,0.00854202
+5.20725,0.00773391
+5.2734,0.00711499
+5.2752,0.0070984
+5.5884,0.0043009
+5.58915,0.00429421
+5.8872,0.00197924
+5.9304,0.00178978
+6.5964,0.000734891
+6.5967,0.0007347
.ENDS B3HA40BP2RUARM3V3_TYP_PULLDOWN

.SUBCKT B3HA40BP2RUARM3V3_TYP_POWER_CLAMP 1 2 3 4
G1 1 2 TABLE {V(3,4)} =
+-3.3,3.08438
+-2.1999,1.55486
+-2.0955,1.4121
+-2.0184,1.30714
+-2.0175,1.30591
+-1.626,0.782236
+-1.49595,0.613949
+-1.4949,0.612608
+-1.4931,0.610312
+-1.4058,0.500268
+-1.40475,0.498963
+-1.4028,0.496539
+-1.338,0.417
+-1.3365,0.415183
+-1.33635,0.415001
+-1.26225,0.326975
+-1.1979,0.253908
+-1.1652,0.218398
+-1.0827,0.135732
+-1.0824,0.135454
+-1.0494,0.1062
+-1.0485,0.105444
+-1.0464,0.103679
+-1.0461,0.103427
+-0.9564,0.0416566
+-0.94305,0.0351073
+-0.9372,0.0324731
+-0.825,0.00711021
+-0.8091,0.00614172
+-0.8019,0.00579561
+-0.79485,0.00550209
+-0.7944,0.00548493
+-0.7806,0.00501223
+-0.7755,0.00486274
+-0.76635,0.00462268
+-0.7656,0.00460397
+-0.7635,0.00455378
+-0.74925,0.00424108
+-0.735,0.00396855
+-0.7332,0.00393614
+-0.7179,0.00367456
+-0.69795,0.00335955
+-0.6972,0.0033481
+-0.6963,0.00333437
+-0.6831,0.00313742
+-0.6609,0.00281878
+-0.61245,0.00216435
+-0.6108,0.00214295
+-0.5424,0.00131619
+-0.53835,0.00127136
+-0.528,0.00115929
+-0.52695,0.00114818
+-0.4344,0.000354066
+-0.43005,0.000328001
+-0.429,0.000321813
+-0.3993,0.00017771
+-0.3987,0.000175419
+-0.3498,5.07711e-005
+-0.348,4.82916e-005
+-0.2616,2.90024e-006
+-0.2163,4.97618e-007
+-0.1194,9.01049e-009
+-0.00255,1.07001e-009
+-0.0024,1.06923e-009
+0,1.05681e-009
+0.0003,1.0557e-009
+0.0012,1.05234e-009
+0.02025,9.81331e-010
+0.1632,7.36176e-010
+0.30525,6.45773e-010
+0.4455,6.00462e-010
+0.58455,5.6919e-010
+0.72705,5.41336e-010
+0.8688,5.14643e-010
+1.0098,4.8758e-010
+1.1532,4.60926e-010
+1.29135,4.36481e-010
+1.43385,4.09884e-010
+1.5744,3.85142e-010
+1.716,3.60855e-010
+1.8585,3.3581e-010
+1.9965,3.12011e-010
+2.1384,2.88051e-010
+2.28,2.63783e-010
+2.4222,2.39284e-010
+2.5641,2.14728e-010
+2.7048,1.8973e-010
+2.8446,1.61846e-010
+2.9856,1.20151e-010
+3.12675,2.73581e-011
+3.26925,1e-015
+3.41175,1e-015
+3.5508,1e-015
+3.6912,1e-015
+3.83355,1e-015
+3.9756,1e-015
+4.116,1e-015
+4.12425,1e-015
+6.5964,1e-015
+6.5967,1e-015
.ENDS B3HA40BP2RUARM3V3_TYP_POWER_CLAMP

.SUBCKT B3HA40BP2RUARM3V3_TYP_GND_CLAMP 1 2 3 4
G1 1 2 TABLE {V(3,4)} =
+-3.3,-1.96014
+-2.19135,-0.98137
+-2.1087,-0.909678
+-2.0112,-0.825496
+-2.0097,-0.824205
+-1.608,-0.483918
+-1.4874,-0.385067
+-1.4856,-0.38361
+-1.485,-0.383124
+-1.3959,-0.311861
+-1.3956,-0.311625
+-1.39335,-0.30985
+-1.3308,-0.261098
+-1.33065,-0.260983
+-1.3299,-0.260406
+-1.25655,-0.205064
+-1.1946,-0.160422
+-1.1616,-0.137701
+-1.07985,-0.0859597
+-1.0791,-0.0855217
+-1.0494,-0.0689377
+-1.0485,-0.06846
+-1.0464,-0.0673455
+-1.0461,-0.0671863
+-0.96,-0.0296665
+-0.94305,-0.0244551
+-0.9405,-0.0237363
+-0.825,-0.00729738
+-0.7977,-0.00624085
+-0.7953,-0.00616597
+-0.78345,-0.00582848
+-0.7755,-0.00562395
+-0.76635,-0.00540596
+-0.7656,-0.00538859
+-0.7635,-0.00534105
+-0.74925,-0.00503276
+-0.73215,-0.00468937
+-0.6951,-0.00399995
+-0.6936,-0.00397305
+-0.693,-0.00396229
+-0.6831,-0.0037865
+-0.6504,-0.00322254
+-0.64665,-0.00315941
+-0.57825,-0.0020696
+-0.5775,-0.00205836
+-0.5424,-0.00155634
+-0.5412,-0.00153998
+-0.5172,-0.00122763
+-0.51555,-0.00120718
+-0.4785,-0.00078863
+-0.4686,-0.000691458
+-0.4272,-0.000362603
+-0.3993,-0.000213831
+-0.3987,-0.000211302
+-0.3816,-0.000147469
+-0.3804,-0.000143647
+-0.3432,-6.01626e-005
+-0.3408,-5.67006e-005
+-0.2616,-5.92904e-006
+-0.17925,-3.15131e-007
+-0.1194,-3.06648e-008
+-0.00255,-5.9051e-010
+-0.0024,-5.88654e-010
+0,-5.58964e-010
+0.0003,-5.55747e-010
+0.0012,-5.46096e-010
+0.02025,-3.66556e-010
+0.1632,1e-015
+0.30525,1e-015
+0.4455,1e-015
+0.58455,1e-015
+0.72705,1e-015
+0.8688,1e-015
+1.0098,1e-015
+1.1532,1e-015
+1.29135,1e-015
+1.43385,1e-015
+1.5744,1e-015
+1.716,1e-015
+1.8585,1e-015
+1.9965,1e-015
+2.1384,1e-015
+2.28,1e-015
+2.4222,1e-015
+2.5641,1e-015
+2.7048,1e-015
+2.8446,1e-015
+2.9856,1e-015
+3.12675,1e-015
+3.26925,1e-015
+3.41175,1e-015
+3.5508,1e-015
+3.6912,1e-015
+3.83355,1e-015
+3.9756,1e-015
+4.116,1e-015
+4.12425,1e-015
+4.125,1e-015
+6.5964,1e-015
+6.5967,1e-015
.ENDS B3HA40BP2RUARM3V3_TYP_GND_CLAMP


.SUBCKT B3HA40BP2RUARM3V3_3_TYP IN EN OUT VCC VEE
* Component:    SAM4S16_LQ64
* Manufacturer: ATMEL Corporation
* Model:        b3ha40bp2ruarm3v3
* Pin:          3
* Requires external VCC= 3.3
* Requires external VEE= 0
C1T TRIG 0 .1P
* Polarity = Non-Inverting
R1T VTPWR TRIG {(V(IN)<2)*1E12+1}
R2T TRIG 0 {(V(IN)>=0.8)*1E12+1}
V2T VTPWR 0 2.2
C_COMP DIE VEE 2.76e-012
R_COMP DIE VEE 1e+011
C1TE EN1 VEE .1P
* Enable = ACTIVE-LOW
R1TE VTPWR EN1 {(V(EN)>=0.88)*1E12+1}
R2TE EN1 0 {(V(EN)<2)*1E12+1}
G1 DIE VEE VALUE = {(V(IPD)*(V(14)*(V(TRIG)>=1)+V(15)*(V(TRIG)<1)))*(V(EN1)>=1)}
G2 DIE VCC VALUE = {(V(IPU)*(V(10)*(V(TRIG)>=1)+V(11)*(V(TRIG)<1)))*(V(EN1)>=1)}
L_PIN DIE 12 3.8e-009
R_PIN OUT 12 0.11
C_PIN 0 OUT 5e-013
*** COMMON TO ALL PINS IN THE PACKAGE
XE4 IPU 0 VCC DIE B3HA40BP2RUARM3V3_TYP_PULLUP
XE5 IPD 0 DIE VEE B3HA40BP2RUARM3V3_TYP_PULLDOWN
XGC DIE VEE DIE VEE B3HA40BP2RUARM3V3_TYP_GND_CLAMP
XPC DIE VCC VCC DIE B3HA40BP2RUARM3V3_TYP_POWER_CLAMP
*** PWLs
XVKUR TRIG 10 IN EN1 B3HA40BP2RUARM3V3_TYP_VKUR
XVKDR TRIG 14 IN EN1 B3HA40BP2RUARM3V3_TYP_VKDR
XVKUF TRIG 11 IN EN1 B3HA40BP2RUARM3V3_TYP_VKUF
XVKDF TRIG 15 IN EN1 B3HA40BP2RUARM3V3_TYP_VKDF
.ENDS B3HA40BP2RUARM3V3_3_TYP


*
* Ver:          4.0
* Name:         samx7x_lqfp100.ibs
* Rev:          1.1
* Date:         June 12 2015
*
* Component:    samx7x_lqfp100
* Manufacturer: ATMEL Corporation
*
*
* Output Buffer Models:
*    HSDRAMDATA_LOW_3V30_1_TYP
*
* Total: 1 Pin Models Created
*

.SUBCKT HSDRAMDATA_LOW_3V30_TYP_PULLUP 1 2 3 4
R1 1 2 1
G1 2 1 TABLE {V(3,4)} =
+-3.3,0.00189646
+-3.27273,0.00187731
+-2.94545,0.00169539
+-2.61818,0.00155187
+-2.29091,0.00145125
+-1.96364,0.00170648
+-1.63636,0.00301325
+-1.30909,0.00701171
+-0.981818,0.0120985
+-0.654546,0.0138654
+-0.327273,0.00869669
+-0.3,0.00797095
+-0,-2.11047e-011
+0.0515625,-0.00135721
+0.103125,-0.00270517
+0.154687,-0.00404375
+0.20625,-0.00537285
+0.257812,-0.00669234
+0.309375,-0.00800209
+0.360937,-0.00930195
+0.4125,-0.0105918
+0.464062,-0.0118715
+0.515625,-0.0131408
+0.567187,-0.0143996
+0.61875,-0.0156477
+0.670312,-0.016885
+0.721875,-0.0181111
+0.773438,-0.019326
+0.825,-0.0205293
+0.876562,-0.0217211
+0.928125,-0.0229008
+0.979687,-0.0240683
+1.03125,-0.0252233
+1.08281,-0.0263656
+1.13437,-0.0274949
+1.18594,-0.0286109
+1.2375,-0.0297134
+1.28906,-0.0308018
+1.34062,-0.031876
+1.39219,-0.0329356
+1.44375,-0.0339803
+1.49531,-0.0350097
+1.54687,-0.0360234
+1.59844,-0.037021
+1.65,-0.038002
+1.70156,-0.0389661
+1.75312,-0.0399128
+1.80469,-0.0408416
+1.85625,-0.041752
+1.90781,-0.0426436
+1.95937,-0.0435156
+2.01094,-0.0443677
+2.0625,-0.0451992
+2.11406,-0.0460094
+2.16562,-0.0467977
+2.21719,-0.047564
+2.26875,-0.0483064
+2.32031,-0.0490245
+2.37187,-0.0497176
+2.42344,-0.0503845
+2.475,-0.0510242
+2.52656,-0.0516356
+2.57812,-0.0522173
+2.62969,-0.0527682
+2.68125,-0.0532874
+2.73281,-0.0537742
+2.78437,-0.0542288
+2.83594,-0.054652
+2.8875,-0.0550453
+2.93906,-0.0554108
+2.99062,-0.0557506
+3.04219,-0.0560672
+3.09375,-0.0563629
+3.14531,-0.0566399
+3.19687,-0.0569001
+3.24844,-0.0571453
+3.3,-0.0573767
+3.64091,-0.0586431
+3.98182,-0.0562643
+4.32273,-0.0449945
+4.66364,-0.0290073
+5.00455,-0.0145684
+5.34545,-0.00826693
+5.68636,-0.00847936
+6.02727,-0.00900245
+6.36818,-0.00956273
+6.6,-0.00997096
.ENDS HSDRAMDATA_LOW_3V30_TYP_PULLUP

.SUBCKT HSDRAMDATA_LOW_3V30_TYP_PULLDOWN 1 2 3 4
R1 1 2 1
G1 2 1 TABLE {V(3,4)} =
+-3.3,-0.00771093
+-3.06818,-0.0071435
+-2.72727,-0.00638437
+-2.38636,-0.00570166
+-2.04545,-0.00512755
+-1.70455,-0.00472027
+-1.36364,-0.00693214
+-1.02273,-0.0125238
+-0.681818,-0.0151253
+-0.340909,-0.00929736
+-4.44089e-016,4.56971e-010
+0,4.56971e-010
+0.0515625,0.00141461
+0.103125,0.00281715
+0.154688,0.00420745
+0.20625,0.00558533
+0.257812,0.00695059
+0.309375,0.00830304
+0.360938,0.00964245
+0.4125,0.0109686
+0.464062,0.0122812
+0.515625,0.0135801
+0.567187,0.0148649
+0.61875,0.0161355
+0.670312,0.0173914
+0.721875,0.0186324
+0.773438,0.0198581
+0.825,0.0210683
+0.876563,0.0222625
+0.928125,0.0234404
+0.979688,0.0246016
+1.03125,0.0257457
+1.08281,0.0268723
+1.13437,0.0279808
+1.18594,0.029071
+1.2375,0.0301422
+1.28906,0.031194
+1.34062,0.0322259
+1.39219,0.0332373
+1.44375,0.0342276
+1.49531,0.0351963
+1.54688,0.0361428
+1.59844,0.0370663
+1.65,0.0379662
+1.70156,0.0388419
+1.75313,0.0396925
+1.80469,0.0405174
+1.85625,0.0413156
+1.90781,0.0420864
+1.95938,0.0428288
+2.01094,0.043542
+2.0625,0.0442248
+2.11406,0.0448762
+2.16562,0.0454952
+2.21719,0.0460804
+2.26875,0.0466306
+2.32031,0.0471446
+2.37188,0.0476211
+2.42344,0.0480592
+2.475,0.0484585
+2.52656,0.0488192
+2.57812,0.0491429
+2.62969,0.0494319
+2.68125,0.0496895
+2.73281,0.0499193
+2.78437,0.0501249
+2.83594,0.0503099
+2.8875,0.0504771
+2.93906,0.0506292
+2.99063,0.0507684
+3.04219,0.0508964
+3.09375,0.0510147
+3.14531,0.0511247
+3.19687,0.0512272
+3.24844,0.0513233
+3.3,0.0514137
+3.6,0.0518497
+3.62727,0.0518793
+3.95455,0.0485581
+4.28182,0.0377317
+4.60909,0.0219146
+4.93636,0.00920951
+5.26364,0.00341988
+5.59091,0.00223565
+5.91818,0.00213623
+6.24545,0.00230336
+6.57273,0.00251532
+6.6,0.00253749
.ENDS HSDRAMDATA_LOW_3V30_TYP_PULLDOWN

.SUBCKT HSDRAMDATA_LOW_3V30_TYP_POWER_CLAMP 1 2 3 4
G1 1 2 TABLE {V(3,4)} =
+-3.3,4.39598
+-3.27273,4.33988
+-2.94545,3.67141
+-2.61818,3.00814
+-2.29091,2.3513
+-1.96364,1.70362
+-1.63636,1.07188
+-1.30909,0.478219
+-0.981818,0.0518195
+-0.654546,0.00369208
+-0.327273,7.29223e-006
+-0.3,2.75184e-006
+-0,1e-015
+0.0515625,1e-015
+0.103125,1e-015
+0.154687,1e-015
+0.20625,1e-015
+0.257812,1e-015
+0.309375,1e-015
+0.360937,1e-015
+0.4125,1e-015
+0.464062,1e-015
+0.515625,1e-015
+0.567187,1e-015
+0.61875,1e-015
+0.670312,1e-015
+0.721875,1e-015
+0.773438,1e-015
+0.825,1e-015
+0.876562,1e-015
+0.928125,1e-015
+0.979687,1e-015
+1.03125,1e-015
+1.08281,1e-015
+1.13437,1e-015
+1.18594,1e-015
+1.2375,1e-015
+1.28906,1e-015
+1.34062,1e-015
+1.39219,1e-015
+1.44375,1e-015
+1.49531,1e-015
+1.54687,1e-015
+1.59844,1e-015
+1.65,1e-015
+1.70156,1e-015
+1.75312,1e-015
+1.80469,1e-015
+1.85625,1e-015
+1.90781,1e-015
+1.95937,1e-015
+2.01094,1e-015
+2.0625,1e-015
+2.11406,1e-015
+2.16562,1e-015
+2.21719,1e-015
+2.26875,1e-015
+2.32031,1e-015
+2.37187,1e-015
+2.42344,1e-015
+2.475,1e-015
+2.52656,1e-015
+2.57812,1e-015
+2.62969,1e-015
+2.68125,1e-015
+2.73281,1e-015
+2.78437,1e-015
+2.83594,1e-015
+2.8875,1e-015
+2.93906,1e-015
+2.99062,1e-015
+3.04219,1e-015
+3.09375,1e-015
+3.14531,1e-015
+3.19687,1e-015
+3.24844,1e-015
+3.3,1e-015
+3.64091,1e-015
+3.98182,1e-015
+4.32273,1e-015
+4.66364,1e-015
+5.00455,1e-015
+5.34545,1e-015
+5.68636,1e-015
+6.02727,1e-015
+6.36818,1e-015
+6.6,1e-015
.ENDS HSDRAMDATA_LOW_3V30_TYP_POWER_CLAMP

.SUBCKT HSDRAMDATA_LOW_3V30_TYP_GND_CLAMP 1 2 3 4
G1 1 2 TABLE {V(3,4)} =
+-3.3,-3.10658
+-3.06818,-2.76047
+-2.72727,-2.25543
+-2.38636,-1.7554
+-2.04545,-1.2626
+-1.70455,-0.782604
+-1.36364,-0.334339
+-1.02273,-0.0341966
+-0.681818,-0.00336126
+-0.340909,-4.96362e-006
+-4.44089e-016,-9.17511e-010
+0,-9.17511e-010
+0.0515625,-7.85472e-010
+0.103125,-6.71636e-010
+0.154688,-5.71969e-010
+0.20625,-4.84943e-010
+0.257812,-4.09316e-010
+0.309375,-3.43921e-010
+0.360938,-2.87663e-010
+0.4125,-2.39516e-010
+0.464062,-1.98535e-010
+0.515625,-1.63847e-010
+0.567187,-1.34652e-010
+0.61875,-1.10225e-010
+0.670312,-8.99065e-011
+0.721875,-7.3105e-011
+0.773438,-5.92921e-011
+0.825,-4.7998e-011
+0.876563,-3.88096e-011
+0.928125,-3.13661e-011
+0.979688,-2.53541e-011
+1.03125,-2.0505e-011
+1.08281,-1.65899e-011
+1.13437,-1.34168e-011
+1.18594,-1.08258e-011
+1.2375,-8.68408e-012
+1.28906,-6.88565e-012
+1.34062,-5.34442e-012
+1.39219,-3.99285e-012
+1.44375,-2.779e-012
+1.49531,-1.66252e-012
+1.54688,-6.13531e-013
+1.59844,3.89775e-013
+1.65,1.36303e-012
+1.70156,2.3167e-012
+1.75313,3.25861e-012
+1.80469,4.19366e-012
+1.85625,5.12498e-012
+1.90781,6.05448e-012
+1.95938,6.9829e-012
+2.01094,7.91138e-012
+2.0625,8.84079e-012
+2.11406,9.77e-012
+2.16562,1.0701e-011
+2.21719,1.16323e-011
+2.26875,1.25656e-011
+2.32031,1.34994e-011
+2.37188,1.44348e-011
+2.42344,1.53721e-011
+2.475,1.63114e-011
+2.52656,1.72532e-011
+2.57812,1.81979e-011
+2.62969,1.9146e-011
+2.68125,2.00983e-011
+2.73281,2.10556e-011
+2.78437,2.20183e-011
+2.83594,2.29898e-011
+2.8875,2.39715e-011
+2.93906,2.49666e-011
+2.99063,2.59791e-011
+3.04219,2.70185e-011
+3.09375,2.80977e-011
+3.14531,2.92537e-011
+3.19687,3.06156e-011
+3.24844,3.31274e-011
+3.3,4.48026e-011
+3.6,1e-015
+3.62727,1e-015
+3.95455,1e-015
+4.28182,1e-015
+4.60909,1e-015
+4.93636,1e-015
+5.26364,1e-015
+5.59091,1e-015
+5.91818,1e-015
+6.24545,1e-015
+6.57273,1e-015
+6.6,1e-015
.ENDS HSDRAMDATA_LOW_3V30_TYP_GND_CLAMP


.SUBCKT HSDRAMDATA_LOW_3V30_1_TYP IN EN OUT VCC VEE
* Component:    samx7x_lqfp100
* Manufacturer: ATMEL Corporation
* Model:        hsdramdata_low_3v30
* Pin:          1
* Requires external VCC= 3.3
* Requires external VEE= 0
C1T TRIG 0 .1P
* Polarity = Inverting
R1T VTPWR TRIG {(V(IN)>=0.8)*1E12+1}
R2T TRIG 0 {(V(IN)<2)*1E12+1}
V2T VTPWR 0 2.2
C_COMP DIE VEE 2.21225e-012
R_COMP DIE VEE 1e+011
C1TE EN1 VEE .1P
* Enable = ACTIVE-LOW
R1TE VTPWR EN1 {(V(EN)>=0.88)*1E12+1}
R2TE EN1 0 {(V(EN)<2)*1E12+1}
G1 DIE VEE VALUE = {(V(IPD)*(V(14)*(V(TRIG)>=1)+V(15)*(V(TRIG)<1)))*(V(EN1)>=1)}
G2 DIE VCC VALUE = {(V(IPU)*(V(10)*(V(TRIG)>=1)+V(11)*(V(TRIG)<1)))*(V(EN1)>=1)}
L_PIN DIE 12 2.5e-009
R_PIN OUT 12 0.0005
C_PIN 0 OUT 1.5e-012
*** COMMON TO ALL PINS IN THE PACKAGE
XE4 IPU 0 VCC DIE HSDRAMDATA_LOW_3V30_TYP_PULLUP
XE5 IPD 0 DIE VEE HSDRAMDATA_LOW_3V30_TYP_PULLDOWN
XGC DIE VEE DIE VEE HSDRAMDATA_LOW_3V30_TYP_GND_CLAMP
XPC DIE VCC VCC DIE HSDRAMDATA_LOW_3V30_TYP_POWER_CLAMP
*** PWLs
XVKUR TRIG 10 IN EN1 HSDRAMDATA_LOW_3V30_TYP_VKUR
XVKDR TRIG 14 IN EN1 HSDRAMDATA_LOW_3V30_TYP_VKDR
XVKUF TRIG 11 IN EN1 HSDRAMDATA_LOW_3V30_TYP_VKUF
XVKDF TRIG 15 IN EN1 HSDRAMDATA_LOW_3V30_TYP_VKDF
.ENDS HSDRAMDATA_LOW_3V30_1_TYP

*
* Ver:          3.2
* Name:         adin1200_32lfcsp.ibs
* Rev:          1.0
* Date:         September 30, 2019
* Source:       Analog Devices, Inc.
*
* Component:    adin1200
* Manufacturer: Analog Devices, Inc.
*
*
* Output Buffer Models:
*    OUTPUT2_CON1_27_MIN
*
* Total: 1 Pin Models Created
*

.SUBCKT OUTPUT2_CON1_MIN_PULLUP 1 2 3 4
R1 1 2 1
G1 2 1 TABLE {V(3,4)} =
+-3.3,2.22821
+-3.23,2.1657
+-3.17,2.10325
+-3.1,2.04086
+-3.03,1.97853
+-2.96,1.91625
+-2.9,1.85402
+-2.83,1.79185
+-2.76,1.72972
+-2.69,1.66765
+-2.63,1.60563
+-2.56,1.54367
+-2.49,1.48176
+-2.42,1.41991
+-2.36,1.35813
+-2.29,1.29642
+-2.22,1.23479