.subckt XTAL60KHZ 1 2

LM1 1 3 1500
CM1 3 4 4.69079e-15
RM1 4 2 20k
CP1 1 2 1.1e-12

.ends XTAL60KHZ
