version 2
1
9
.tran 10p 45m 0 100n{return}{return}{return}.kicad adjustpaths{return}.save all{return}.probe alli
7
2
I(C2)
 
2
I(C3)
 
2
I(R_USB1)
 
1
V(/V_RAMP2)
 
1
V(/V_SMPS)
 
1
V(/V_SOFT)
 
1
V(/V_USB_HUB)
 
