version 2
1
9
.tran 1n 45m 0 100n{return}{return}{return}.kicad adjustpaths{return}.save all{return}.probe alli
4
2
I(R_USB1)
 
1
V(/V_SMPS)
 
1
V(/V_SOFT)
 
1
V(/V_USB_HUB)
 
